
     RDKit          3D

 12 12  0  0  0  0  0  0  0  0999 V2000
    2.9971    1.3096    0.1700 O   0  0  0  0  0  0  0  0  0  0  0  0
    2.4511    0.0158   -0.1636 C   0  0  0  0  0  0  0  0  0  0  0  0
    0.9364    0.0090    0.1224 C   0  0  2  0  0  0  0  0  0  0  0  0
    0.2138   -1.2457   -0.4451 C   0  0  0  0  0  0  0  0  0  0  0  0
   -1.3280   -1.0947   -0.1542 C   0  0  2  0  0  0  0  0  0  0  0  0
   -1.7637    0.3389    0.2283 C   0  0  2  0  0  0  0  0  0  0  0  0
   -0.9634    1.3788   -0.6326 C   0  0  2  0  0  0  0  0  0  0  0  0
    0.4579    1.2394   -0.4863 O   0  0  0  0  0  0  0  0  0  0  0  0
   -1.2497    2.6034   -0.2004 O   0  0  0  0  0  1  0  0  0  0  0  0
   -1.5671    0.6432    1.6307 O   0  0  0  0  0  0  0  0  0  0  0  0
   -1.7785   -2.0714    0.8063 O   0  0  0  0  0  0  0  0  0  0  0  0
    0.6757   -2.3724    0.1128 O   0  0  0  0  0  1  0  0  0  0  0  0
  1  2  1  0
  3  2  1  6
  3  4  1  0
  4  5  1  0
  5  6  1  0
  6  7  1  0
  7  8  1  0
  7  9  1  1
  6 10  1  1
  5 11  1  1
  4 12  1  0
  8  3  1  0
M  RAD  2   9   2  12   2
M  END
