
     RDKit          3D

 13 13  0  0  0  0  0  0  0  0999 V2000
    3.0488   -0.7412   -0.1175 C   0  0  0  0  0  0  0  0  0  0  0  0
    2.2250    0.3774    0.5058 C   0  0  2  0  0  0  0  0  0  0  0  0
    0.7395    0.2057    0.2706 C   0  0  0  0  0  0  0  0  0  0  0  0
   -0.1152   -0.0989    1.3384 C   0  0  0  0  0  0  0  0  0  0  0  0
   -1.4873   -0.2609    1.1274 C   0  0  0  0  0  0  0  0  0  0  0  0
   -2.0333   -0.1295   -0.1578 C   0  0  0  0  0  0  0  0  0  0  0  0
   -1.1798    0.1830   -1.2252 C   0  0  0  0  0  0  0  0  0  0  0  0
    0.1913    0.3448   -1.0134 C   0  0  0  0  0  0  0  0  0  0  0  0
   -3.5176   -0.2829   -0.3807 C   0  0  0  0  0  0  0  0  0  0  0  0
   -4.1021   -1.1528    0.4903 F   0  0  0  0  0  0  0  0  0  0  0  0
   -4.1864    0.8944   -0.2376 F   0  0  0  0  0  0  0  0  0  0  0  0
   -3.8285   -0.7409   -1.6257 F   0  0  0  0  0  0  0  0  0  0  0  0
    2.6632    1.6245   -0.0302 O   0  0  0  0  0  0  0  0  0  0  0  0
  2  1  1  6
  2  3  1  0
  3  4  2  0
  4  5  1  0
  5  6  2  0
  6  7  1  0
  7  8  2  0
  6  9  1  0
  9 10  1  0
  9 11  1  0
  9 12  1  0
  2 13  1  0
  8  3  1  0
M  END
