
     RDKit          3D

 26 28  0  0  0  0  0  0  0  0999 V2000
   -5.3047   -0.4671    0.1989 C   0  0  0  0  0  0  0  0  0  0  0  0
   -4.2759   -0.1548    1.2624 C   0  0  0  0  0  0  0  0  0  0  0  0
   -4.1654   -1.2319    2.3144 C   0  0  0  0  0  0  0  0  0  0  0  0
   -4.0426    1.2767    1.7204 C   0  0  2  0  0  0  0  0  0  0  0  0
   -4.8670    2.3754    1.1918 C   0  0  0  0  0  0  0  0  0  0  0  0
   -6.0892    2.7450    1.6070 C   0  0  0  0  0  0  0  0  0  0  0  0
   -6.8965    4.0774    0.8576 Cl  0  0  0  0  0  0  0  0  0  0  0  0
   -6.9111    1.9312    2.8884 Cl  0  0  0  0  0  0  0  0  0  0  0  0
   -3.0329    0.6041    0.8130 C   0  0  1  0  0  0  0  0  0  0  0  0
   -1.6831    0.2482    1.3179 C   0  0  0  0  0  0  0  0  0  0  0  0
   -1.3246    0.4536    2.4675 O   0  0  0  0  0  0  0  0  0  0  0  0
   -0.9436   -0.3369    0.3438 O   0  0  0  0  0  0  0  0  0  0  0  0
    0.3688   -0.7116    0.7678 C   0  0  0  0  0  0  0  0  0  0  0  0
    1.1304   -1.1910   -0.4416 C   0  0  0  0  0  0  0  0  0  0  0  0
    0.7552   -2.3751   -1.0933 C   0  0  0  0  0  0  0  0  0  0  0  0
    1.4442   -2.8123   -2.2262 C   0  0  0  0  0  0  0  0  0  0  0  0
    2.5195   -2.0738   -2.7164 C   0  0  0  0  0  0  0  0  0  0  0  0
    2.9116   -0.9046   -2.0674 C   0  0  0  0  0  0  0  0  0  0  0  0
    3.9552   -0.2009   -2.6271 O   0  0  0  0  0  0  0  0  0  0  0  0
    4.9125    0.2899   -1.7684 C   0  0  0  0  0  0  0  0  0  0  0  0
    5.5541   -0.5153   -0.8237 C   0  0  0  0  0  0  0  0  0  0  0  0
    6.5409    0.0328   -0.0036 C   0  0  0  0  0  0  0  0  0  0  0  0
    6.8927    1.3767   -0.1372 C   0  0  0  0  0  0  0  0  0  0  0  0
    6.2606    2.1751   -1.0914 C   0  0  0  0  0  0  0  0  0  0  0  0
    5.2766    1.6284   -1.9151 C   0  0  0  0  0  0  0  0  0  0  0  0
    2.2094   -0.4512   -0.9460 C   0  0  0  0  0  0  0  0  0  0  0  0
  1  2  1  0
  2  3  1  0
  2  4  1  0
  4  5  1  6
  5  6  2  3
  6  7  1  0
  6  8  1  0
  4  9  1  0
  9 10  1  1
 10 11  2  0
 10 12  1  0
 12 13  1  0
 13 14  1  0
 14 15  2  0
 15 16  1  0
 16 17  2  0
 17 18  1  0
 18 19  1  0
 19 20  1  0
 20 21  2  0
 21 22  1  0
 22 23  2  0
 23 24  1  0
 24 25  2  0
 18 26  2  0
  9  2  1  0
 26 14  1  0
 25 20  1  0
M  END
