
     RDKit          3D

 25 27  0  0  0  0  0  0  0  0999 V2000
   -1.7139   -1.4381    2.6520 C   0  0  0  0  0  0  0  0  0  0  0  0
   -1.8565   -1.6584    1.1727 C   0  0  0  0  0  0  0  0  0  0  0  0
   -2.3483   -0.7399    0.3154 C   0  0  0  0  0  0  0  0  0  0  0  0
   -2.8397    0.6118    0.6261 C   0  0  2  0  0  0  0  0  0  0  0  0
   -2.6771    1.7835   -0.3217 C   0  0  1  0  0  0  0  0  0  0  0  0
   -1.8724    1.7336    0.9750 C   0  0  0  0  0  0  0  0  0  0  0  0
   -2.2741    2.6897    2.0748 C   0  0  0  0  0  0  0  0  0  0  0  0
   -0.3759    1.4977    0.9128 C   0  0  0  0  0  0  0  0  0  0  0  0
   -1.9692    1.7644   -1.6240 C   0  0  0  0  0  0  0  0  0  0  0  0
   -1.1936    2.6555   -1.9408 O   0  0  0  0  0  0  0  0  0  0  0  0
   -2.3220    0.7058   -2.3926 O   0  0  0  0  0  0  0  0  0  0  0  0
   -1.4941    0.4941   -3.5453 C   0  0  0  0  0  0  0  0  0  0  0  0
   -0.2140   -0.1740   -3.1780 C   0  0  0  0  0  0  0  0  0  0  0  0
    0.0145   -1.5266   -3.0218 C   0  0  0  0  0  0  0  0  0  0  0  0
    1.2906   -1.7586   -2.6191 O   0  0  0  0  0  0  0  0  0  0  0  0
    1.8959   -0.5422   -2.4910 C   0  0  0  0  0  0  0  0  0  0  0  0
    1.0196    0.4584   -2.8519 C   0  0  0  0  0  0  0  0  0  0  0  0
    3.2966   -0.5352   -1.9932 C   0  0  0  0  0  0  0  0  0  0  0  0
    3.3782   -0.4117   -0.4888 C   0  0  0  0  0  0  0  0  0  0  0  0
    3.5308   -1.5556    0.3091 C   0  0  0  0  0  0  0  0  0  0  0  0
    3.5956   -1.4477    1.6996 C   0  0  0  0  0  0  0  0  0  0  0  0
    3.4982   -0.1965    2.3063 C   0  0  0  0  0  0  0  0  0  0  0  0
    3.3297    0.9474    1.5255 C   0  0  0  0  0  0  0  0  0  0  0  0
    3.2707    0.8418    0.1343 C   0  0  0  0  0  0  0  0  0  0  0  0
   -1.4072   -3.0102    0.6874 C   0  0  0  0  0  0  0  0  0  0  0  0
  1  2  1  0
  2  3  2  3
  4  3  1  6
  4  5  1  0
  5  6  1  0
  6  7  1  0
  6  8  1  0
  5  9  1  6
  9 10  2  0
  9 11  1  0
 11 12  1  0
 12 13  1  0
 13 14  2  0
 14 15  1  0
 15 16  1  0
 16 17  2  0
 16 18  1  0
 18 19  1  0
 19 20  2  0
 20 21  1  0
 21 22  2  0
 22 23  1  0
 23 24  2  0
  2 25  1  0
  6  4  1  0
 17 13  1  0
 24 19  1  0
M  END
