
     RDKit          3D

 19 19  0  0  0  0  0  0  0  0999 V2000
   -2.4270    3.5395   -1.0692 C   0  0  0  0  0  0  0  0  0  0  0  0
   -3.0406    2.1622   -0.9067 C   0  0  0  0  0  0  0  0  0  0  0  0
   -2.0214    1.1516   -0.9171 O   0  0  0  0  0  0  0  0  0  0  0  0
   -1.4291    0.8876    0.2875 C   0  0  0  0  0  0  0  0  0  0  0  0
   -1.6986    1.4614    1.3356 O   0  0  0  0  0  0  0  0  0  0  0  0
   -0.4303   -0.2594    0.1259 C   0  0  1  0  0  0  0  0  0  0  0  0
    0.8960   -0.1620    1.3813 S   0  0  0  0  0  0  0  0  0  0  0  0
    2.2590    1.1519    0.4745 P   0  0  0  0  0  5  0  0  0  0  0  0
    1.6224    2.8763   -0.1725 S   0  0  0  0  0  0  0  0  0  0  0  0
    3.5081    1.2812    1.5091 O   0  0  0  0  0  0  0  0  0  0  0  0
    4.6370    2.0532    1.1456 C   0  0  0  0  0  0  0  0  0  0  0  0
    2.9711    0.3228   -0.7330 O   0  0  0  0  0  0  0  0  0  0  0  0
    3.5338   -0.9499   -0.4777 C   0  0  0  0  0  0  0  0  0  0  0  0
   -1.1092   -1.6174    0.1626 C   0  0  0  0  0  0  0  0  0  0  0  0
   -1.9148   -2.0052    1.2469 C   0  0  0  0  0  0  0  0  0  0  0  0
   -2.5316   -3.2571    1.2630 C   0  0  0  0  0  0  0  0  0  0  0  0
   -2.3518   -4.1378    0.1990 C   0  0  0  0  0  0  0  0  0  0  0  0
   -1.5540   -3.7693   -0.8819 C   0  0  0  0  0  0  0  0  0  0  0  0
   -0.9349   -2.5180   -0.9011 C   0  0  0  0  0  0  0  0  0  0  0  0
  1  2  1  0
  2  3  1  0
  3  4  1  0
  4  5  2  0
  4  6  1  0
  6  7  1  1
  7  8  1  0
  8  9  2  0
  8 10  1  0
 10 11  1  0
  8 12  1  0
 12 13  1  0
  6 14  1  0
 14 15  2  0
 15 16  1  0
 16 17  2  0
 17 18  1  0
 18 19  2  0
 19 14  1  0
M  END
