
     RDKit          3D

 25 27  0  0  0  0  0  0  0  0999 V2000
   -4.7997    0.3630    2.1860 C   0  0  0  0  0  0  0  0  0  0  0  0
   -3.8452    0.5931    0.9898 C   0  0  0  0  0  0  0  0  0  0  0  0
   -3.0861    1.9097    1.2380 C   0  0  0  0  0  0  0  0  0  0  0  0
   -4.7181    0.7541   -0.2666 C   0  0  0  0  0  0  0  0  0  0  0  0
   -2.8573   -0.6169    0.9030 C   0  0  1  0  0  0  0  0  0  0  0  0
   -3.6020   -1.8397    0.7551 O   0  0  0  0  0  0  0  0  0  0  0  0
   -1.6734   -0.5144   -0.1080 C   0  0  1  0  0  0  0  0  0  0  0  0
   -0.7540   -1.5993    0.1635 O   0  0  0  0  0  0  0  0  0  0  0  0
    0.5469   -1.1818    0.1601 C   0  0  0  0  0  0  0  0  0  0  0  0
    1.0672   -0.4562    1.2279 C   0  0  0  0  0  0  0  0  0  0  0  0
    2.4054   -0.0544    1.1996 C   0  0  0  0  0  0  0  0  0  0  0  0
    3.2400   -0.3851    0.1173 C   0  0  0  0  0  0  0  0  0  0  0  0
    4.6500    0.0385    0.0904 C   0  0  0  0  0  0  0  0  0  0  0  0
    5.6820   -0.8935   -0.1095 C   0  0  0  0  0  0  0  0  0  0  0  0
    7.0205   -0.4922   -0.1386 C   0  0  0  0  0  0  0  0  0  0  0  0
    7.3501    0.8499    0.0317 C   0  0  0  0  0  0  0  0  0  0  0  0
    6.3434    1.7898    0.2330 C   0  0  0  0  0  0  0  0  0  0  0  0
    5.0053    1.3868    0.2628 C   0  0  0  0  0  0  0  0  0  0  0  0
    2.6923   -1.1422   -0.9336 C   0  0  0  0  0  0  0  0  0  0  0  0
    1.3560   -1.5478   -0.9092 C   0  0  0  0  0  0  0  0  0  0  0  0
   -2.0557   -0.6145   -1.5085 N   0  0  0  0  0  0  0  0  0  0  0  0
   -1.5674    0.1213   -2.5452 C   0  0  0  0  0  0  0  0  0  0  0  0
   -2.1393   -0.2590   -3.6637 N   0  0  0  0  0  0  0  0  0  0  0  0
   -2.9724   -1.2625   -3.2599 C   0  0  0  0  0  0  0  0  0  0  0  0
   -2.9639   -1.5180   -1.9482 N   0  0  0  0  0  0  0  0  0  0  0  0
  1  2  1  0
  2  3  1  0
  2  4  1  0
  2  5  1  0
  5  6  1  6
  5  7  1  0
  7  8  1  1
  8  9  1  0
  9 10  2  0
 10 11  1  0
 11 12  2  0
 12 13  1  0
 13 14  2  0
 14 15  1  0
 15 16  2  0
 16 17  1  0
 17 18  2  0
 12 19  1  0
 19 20  2  0
  7 21  1  0
 21 22  1  0
 22 23  2  0
 23 24  1  0
 24 25  2  0
 20  9  1  0
 25 21  1  0
 18 13  1  0
M  END
