
     RDKit          3D

 10 10  0  0  0  0  0  0  0  0999 V2000
   -2.5042    0.6065    0.5052 C   0  0  0  0  0  0  0  0  0  0  0  0
   -1.8656   -0.7332    0.8522 C   0  0  0  0  0  0  0  0  0  0  0  0
   -0.8193   -1.2266   -0.1555 C   0  0  2  0  0  0  0  0  0  0  0  0
    0.4414   -0.3864   -0.1952 C   0  0  0  0  0  0  0  0  0  0  0  0
    0.5625    0.7208   -1.0499 C   0  0  0  0  0  0  0  0  0  0  0  0
    1.7302    1.4855   -1.0654 C   0  0  0  0  0  0  0  0  0  0  0  0
    2.7907    1.1564   -0.2244 C   0  0  0  0  0  0  0  0  0  0  0  0
    2.6833    0.0654    0.6350 C   0  0  0  0  0  0  0  0  0  0  0  0
    1.5156   -0.7000    0.6519 C   0  0  0  0  0  0  0  0  0  0  0  0
   -1.4063   -1.3402   -1.4513 O   0  0  0  0  0  0  0  0  0  0  0  0
  1  2  1  0
  2  3  1  0
  3  4  1  0
  4  5  2  0
  5  6  1  0
  6  7  2  0
  7  8  1  0
  8  9  2  0
  3 10  1  6
  9  4  1  0
M  END
