
     RDKit          3D

 24 26  0  0  0  0  0  0  0  0999 V2000
   -5.7603    2.9424   -0.2705 C   0  0  0  0  0  0  0  0  0  0  0  0
   -5.1707    1.6748   -0.8300 C   0  0  0  0  0  0  0  0  0  0  0  0
   -6.1766    0.6727   -1.3250 C   0  0  0  0  0  0  0  0  0  0  0  0
   -3.8373    1.4813   -0.8654 C   0  0  0  0  0  0  0  0  0  0  0  0
   -3.1252    0.3043   -1.3826 C   0  0  1  0  0  0  0  0  0  0  0  0
   -1.7724   -0.1344   -0.8675 C   0  0  1  0  0  0  0  0  0  0  0  0
   -0.9872    0.5540    0.1897 C   0  0  0  0  0  0  0  0  0  0  0  0
   -1.4541    1.3231    1.0154 O   0  0  0  0  0  0  0  0  0  0  0  0
    0.3212    0.2018    0.1161 O   0  0  0  0  0  0  0  0  0  0  0  0
    1.1174    0.8346    1.1159 C   0  0  0  0  0  0  0  0  0  0  0  0
    2.4778    0.4099    0.9271 N   0  0  0  0  0  0  0  0  0  0  0  0
    3.3615    1.0202    0.0957 C   0  0  0  0  0  0  0  0  0  0  0  0
    3.2077    2.0131   -0.5918 O   0  0  0  0  0  0  0  0  0  0  0  0
    4.6021    0.2437    0.1684 C   0  0  0  0  0  0  0  0  0  0  0  0
    4.4011   -0.7774    1.0058 C   0  0  0  0  0  0  0  0  0  0  0  0
    5.4129   -1.8008    1.3606 C   0  0  0  0  0  0  0  0  0  0  0  0
    6.8140   -1.3667    0.8885 C   0  0  0  0  0  0  0  0  0  0  0  0
    6.7911   -0.7214   -0.5069 C   0  0  0  0  0  0  0  0  0  0  0  0
    5.8590    0.5036   -0.5732 C   0  0  0  0  0  0  0  0  0  0  0  0
    3.0263   -0.6889    1.5063 C   0  0  0  0  0  0  0  0  0  0  0  0
    2.5251   -1.4750    2.2891 O   0  0  0  0  0  0  0  0  0  0  0  0
   -3.0091   -0.9664   -0.5504 C   0  0  0  0  0  0  0  0  0  0  0  0
   -3.1539   -2.2843   -1.2757 C   0  0  0  0  0  0  0  0  0  0  0  0
   -3.5445   -1.0145    0.8629 C   0  0  0  0  0  0  0  0  0  0  0  0
  1  2  1  0
  2  3  1  0
  2  4  2  3
  5  4  1  1
  5  6  1  0
  6  7  1  1
  7  8  2  0
  7  9  1  0
  9 10  1  0
 10 11  1  0
 11 12  1  0
 12 13  2  0
 12 14  1  0
 14 15  2  0
 15 16  1  0
 16 17  1  0
 17 18  1  0
 18 19  1  0
 15 20  1  0
 20 21  2  0
  6 22  1  0
 22 23  1  0
 22 24  1  0
 22  5  1  0
 20 11  1  0
 19 14  1  0
M  END
