
     RDKit          3D

 24 26  0  0  0  0  0  0  0  0999 V2000
   -4.4639   -1.0013    1.2954 C   0  0  0  0  0  0  0  0  0  0  0  0
   -3.8940   -1.6370    0.0575 C   0  0  0  0  0  0  0  0  0  0  0  0
   -4.4129   -3.0163   -0.2428 C   0  0  0  0  0  0  0  0  0  0  0  0
   -2.9872   -1.0407   -0.7410 C   0  0  0  0  0  0  0  0  0  0  0  0
   -2.3916    0.2914   -0.5653 C   0  0  1  0  0  0  0  0  0  0  0  0
   -1.9423    1.0598   -1.7928 C   0  0  2  0  0  0  0  0  0  0  0  0
   -0.6678    1.8129   -1.7977 C   0  0  0  0  0  0  0  0  0  0  0  0
   -0.5653    2.9097   -2.3259 O   0  0  0  0  0  0  0  0  0  0  0  0
    0.3288    1.1247   -1.1908 O   0  0  0  0  0  0  0  0  0  0  0  0
    1.5634    1.8362   -1.1858 C   0  0  0  0  0  0  0  0  0  0  0  0
    2.5222    1.0376   -0.4745 N   0  0  0  0  0  0  0  0  0  0  0  0
    3.3147    0.0979   -1.0494 C   0  0  0  0  0  0  0  0  0  0  0  0
    3.4079   -0.2135   -2.2219 O   0  0  0  0  0  0  0  0  0  0  0  0
    4.0878   -0.5097    0.0358 C   0  0  0  0  0  0  0  0  0  0  0  0
    3.7291    0.0797    1.1786 C   0  0  0  0  0  0  0  0  0  0  0  0
    4.2643   -0.2603    2.5174 C   0  0  0  0  0  0  0  0  0  0  0  0
    5.0536   -1.5813    2.4684 C   0  0  0  0  0  0  0  0  0  0  0  0
    5.9264   -1.6997    1.2084 C   0  0  0  0  0  0  0  0  0  0  0  0
    5.1061   -1.5780   -0.0884 C   0  0  0  0  0  0  0  0  0  0  0  0
    2.7067    1.0816    0.8691 C   0  0  0  0  0  0  0  0  0  0  0  0
    2.1649    1.7936    1.6930 O   0  0  0  0  0  0  0  0  0  0  0  0
   -3.1407    1.5444   -0.9883 C   0  0  0  0  0  0  0  0  0  0  0  0
   -4.4937    1.4481   -1.6523 C   0  0  0  0  0  0  0  0  0  0  0  0
   -3.0008    2.7557   -0.0969 C   0  0  0  0  0  0  0  0  0  0  0  0
  1  2  1  0
  2  3  1  0
  2  4  2  3
  5  4  1  6
  5  6  1  0
  6  7  1  1
  7  8  2  0
  7  9  1  0
  9 10  1  0
 10 11  1  0
 11 12  1  0
 12 13  2  0
 12 14  1  0
 14 15  2  0
 15 16  1  0
 16 17  1  0
 17 18  1  0
 18 19  1  0
 15 20  1  0
 20 21  2  0
  6 22  1  0
 22 23  1  0
 22 24  1  0
 22  5  1  0
 20 11  1  0
 19 14  1  0
M  END
