
     RDKit          3D

 11 10  0  0  0  0  0  0  0  0999 V2000
   -4.1295   -0.1965    0.5931 C   0  0  0  0  0  0  0  0  0  0  0  0
   -2.7340    0.1089    0.1116 C   0  0  0  0  0  0  0  0  0  0  0  0
   -2.4420    1.5771   -0.0270 C   0  0  0  0  0  0  0  0  0  0  0  0
   -1.8675   -0.8899   -0.1474 C   0  0  0  0  0  0  0  0  0  0  0  0
   -0.4516   -0.7890   -0.6479 C   0  0  0  0  0  0  0  0  0  0  0  0
    0.5427   -1.2243    0.4355 C   0  0  0  0  0  0  0  0  0  0  0  0
    2.0416   -1.0945    0.0852 C   0  0  1  0  0  0  0  0  0  0  0  0
    2.3663   -1.4512   -1.3661 C   0  0  0  0  0  0  0  0  0  0  0  0
    2.6618    0.2543    0.4998 C   0  0  0  0  0  0  0  0  0  0  0  0
    2.0670    1.4993   -0.1420 C   0  0  0  0  0  0  0  0  0  0  0  0
    2.8390    2.6269    0.2562 O   0  0  0  0  0  0  0  0  0  0  0  0
  1  2  1  0
  2  3  1  0
  2  4  2  3
  4  5  1  0
  5  6  1  0
  6  7  1  0
  7  8  1  6
  7  9  1  0
  9 10  1  0
 10 11  1  0
M  END
