
     RDKit          3D

 25 27  0  0  0  0  0  0  0  0999 V2000
   -5.1890    1.0510   -1.6894 C   0  0  0  0  0  0  0  0  0  0  0  0
   -4.2374    0.5660   -0.5676 C   0  0  0  0  0  0  0  0  0  0  0  0
   -4.0298    1.7363    0.4111 C   0  0  0  0  0  0  0  0  0  0  0  0
   -4.9553   -0.5789    0.1675 C   0  0  0  0  0  0  0  0  0  0  0  0
   -2.8858    0.1061   -1.2082 C   0  0  1  0  0  0  0  0  0  0  0  0
   -2.4253    1.1759   -2.0710 O   0  0  0  0  0  0  0  0  0  0  0  0
   -1.7102   -0.2790   -0.2617 C   0  0  2  0  0  0  0  0  0  0  0  0
   -0.5736   -0.5115   -1.1338 O   0  0  0  0  0  0  0  0  0  0  0  0
    0.6857   -0.2698   -0.6621 C   0  0  0  0  0  0  0  0  0  0  0  0
    1.6803   -0.2832   -1.6416 C   0  0  0  0  0  0  0  0  0  0  0  0
    3.0187   -0.0554   -1.3054 C   0  0  0  0  0  0  0  0  0  0  0  0
    3.3966    0.1861    0.0226 C   0  0  0  0  0  0  0  0  0  0  0  0
    4.8034    0.4265    0.3825 C   0  0  0  0  0  0  0  0  0  0  0  0
    5.8113   -0.4786    0.0097 C   0  0  0  0  0  0  0  0  0  0  0  0
    7.1473   -0.2508    0.3510 C   0  0  0  0  0  0  0  0  0  0  0  0
    7.4985    0.8880    1.0711 C   0  0  0  0  0  0  0  0  0  0  0  0
    6.5155    1.7982    1.4506 C   0  0  0  0  0  0  0  0  0  0  0  0
    5.1798    1.5684    1.1094 C   0  0  0  0  0  0  0  0  0  0  0  0
    2.3880    0.1855    0.9984 C   0  0  0  0  0  0  0  0  0  0  0  0
    1.0463   -0.0430    0.6632 C   0  0  0  0  0  0  0  0  0  0  0  0
   -1.9392   -1.4868    0.5061 N   0  0  0  0  0  0  0  0  0  0  0  0
   -2.0462   -2.7642    0.0453 C   0  0  0  0  0  0  0  0  0  0  0  0
   -2.2281   -3.5830    1.0550 N   0  0  0  0  0  0  0  0  0  0  0  0
   -2.1870   -2.7522    2.1372 C   0  0  0  0  0  0  0  0  0  0  0  0
   -2.0080   -1.4584    1.8561 N   0  0  0  0  0  0  0  0  0  0  0  0
  1  2  1  0
  2  3  1  0
  2  4  1  0
  2  5  1  0
  5  6  1  6
  5  7  1  0
  7  8  1  6
  8  9  1  0
  9 10  2  0
 10 11  1  0
 11 12  2  0
 12 13  1  0
 13 14  2  0
 14 15  1  0
 15 16  2  0
 16 17  1  0
 17 18  2  0
 12 19  1  0
 19 20  2  0
  7 21  1  0
 21 22  1  0
 22 23  2  0
 23 24  1  0
 24 25  2  0
 20  9  1  0
 25 21  1  0
 18 13  1  0
M  END
