
     RDKit          3D

 24 25  0  0  0  0  0  0  0  0999 V2000
   -5.7398    3.1378    1.6542 C   0  0  0  0  0  0  0  0  0  0  0  0
   -5.1265    2.1056    1.6830 C   0  0  0  0  0  0  0  0  0  0  0  0
   -4.3994    0.8295    1.7006 C   0  0  0  0  0  0  0  0  0  0  0  0
   -3.7621    0.6519    0.4335 O   0  0  0  0  0  0  0  0  0  0  0  0
   -3.1466   -0.5590    0.2960 C   0  0  0  0  0  0  0  0  0  0  0  0
   -3.1023   -1.4108    1.1748 O   0  0  0  0  0  0  0  0  0  0  0  0
   -2.5276   -0.6723   -1.1016 C   0  0  2  0  0  0  0  0  0  0  0  0
   -3.6346   -0.6858   -2.1515 C   0  0  0  0  0  0  0  0  0  0  0  0
   -1.7941   -1.8925   -1.2659 O   0  0  0  0  0  0  0  0  0  0  0  0
   -0.4620   -1.7170   -1.0080 C   0  0  0  0  0  0  0  0  0  0  0  0
    0.3781   -1.2006   -1.9954 C   0  0  0  0  0  0  0  0  0  0  0  0
    1.7398   -1.0581   -1.7314 C   0  0  0  0  0  0  0  0  0  0  0  0
    2.2430   -1.4362   -0.4847 C   0  0  0  0  0  0  0  0  0  0  0  0
    3.5902   -1.3483   -0.2428 O   0  0  0  0  0  0  0  0  0  0  0  0
    4.0511   -0.1307    0.2498 C   0  0  0  0  0  0  0  0  0  0  0  0
    3.1807    0.8720    0.5361 N   0  0  0  0  0  0  0  0  0  0  0  0
    3.7205    2.0186    1.0189 C   0  0  0  0  0  0  0  0  0  0  0  0
    5.0816    2.2067    1.2294 C   0  0  0  0  0  0  0  0  0  0  0  0
    5.6788    3.6937    1.8439 Cl  0  0  0  0  0  0  0  0  0  0  0  0
    5.9537    1.1688    0.9241 C   0  0  0  0  0  0  0  0  0  0  0  0
    5.4267   -0.0171    0.4292 C   0  0  0  0  0  0  0  0  0  0  0  0
    6.2533   -1.0271    0.1175 F   0  0  0  0  0  0  0  0  0  0  0  0
    1.4094   -1.9953    0.4849 C   0  0  0  0  0  0  0  0  0  0  0  0
    0.0486   -2.1391    0.2192 C   0  0  0  0  0  0  0  0  0  0  0  0
  1  2  3  0
  2  3  1  0
  3  4  1  0
  4  5  1  0
  5  6  2  0
  5  7  1  0
  7  8  1  6
  7  9  1  0
  9 10  1  0
 10 11  2  0
 11 12  1  0
 12 13  2  0
 13 14  1  0
 14 15  1  0
 15 16  2  0
 16 17  1  0
 17 18  2  0
 18 19  1  0
 18 20  1  0
 20 21  2  0
 21 22  1  0
 13 23  1  0
 23 24  2  0
 24 10  1  0
 21 15  1  0
M  END
