
     RDKit          3D

 25 27  0  0  0  0  0  0  0  0999 V2000
   -2.7686    1.7748   -0.5645 C   0  0  0  0  0  0  0  0  0  0  0  0
   -3.3569    0.8094    0.4807 C   0  0  0  0  0  0  0  0  0  0  0  0
   -3.7294    1.6363    1.7349 C   0  0  0  0  0  0  0  0  0  0  0  0
   -4.6617    0.2135   -0.0748 C   0  0  0  0  0  0  0  0  0  0  0  0
   -2.3065   -0.2743    0.8963 C   0  0  1  0  0  0  0  0  0  0  0  0
   -2.8594   -1.1225    1.9196 O   0  0  0  0  0  0  0  0  0  0  0  0
   -1.6167   -1.0935   -0.2427 C   0  0  1  0  0  0  0  0  0  0  0  0
   -0.5303   -1.8777    0.3013 O   0  0  0  0  0  0  0  0  0  0  0  0
    0.6694   -1.2281    0.2271 C   0  0  0  0  0  0  0  0  0  0  0  0
    1.3365   -1.0834   -0.9860 C   0  0  0  0  0  0  0  0  0  0  0  0
    2.5754   -0.4372   -1.0190 C   0  0  0  0  0  0  0  0  0  0  0  0
    3.1708    0.0512    0.1573 C   0  0  0  0  0  0  0  0  0  0  0  0
    4.4784    0.7257    0.1191 C   0  0  0  0  0  0  0  0  0  0  0  0
    5.5466    0.2776    0.9139 C   0  0  0  0  0  0  0  0  0  0  0  0
    6.7896    0.9154    0.8769 C   0  0  0  0  0  0  0  0  0  0  0  0
    6.9848    2.0141    0.0440 C   0  0  0  0  0  0  0  0  0  0  0  0
    5.9392    2.4748   -0.7518 C   0  0  0  0  0  0  0  0  0  0  0  0
    4.6971    1.8350   -0.7148 C   0  0  0  0  0  0  0  0  0  0  0  0
    2.4895   -0.1385    1.3718 C   0  0  0  0  0  0  0  0  0  0  0  0
    1.2507   -0.7833    1.4092 C   0  0  0  0  0  0  0  0  0  0  0  0
   -2.4940   -2.0388   -0.9196 N   0  0  0  0  0  0  0  0  0  0  0  0
   -2.5464   -2.2954   -2.2560 C   0  0  0  0  0  0  0  0  0  0  0  0
   -3.4467   -3.2208   -2.4923 N   0  0  0  0  0  0  0  0  0  0  0  0
   -3.9132   -3.5248   -1.2453 C   0  0  0  0  0  0  0  0  0  0  0  0
   -3.3706   -2.8220   -0.2464 N   0  0  0  0  0  0  0  0  0  0  0  0
  1  2  1  0
  2  3  1  0
  2  4  1  0
  2  5  1  0
  5  6  1  1
  5  7  1  0
  7  8  1  1
  8  9  1  0
  9 10  2  0
 10 11  1  0
 11 12  2  0
 12 13  1  0
 13 14  2  0
 14 15  1  0
 15 16  2  0
 16 17  1  0
 17 18  2  0
 12 19  1  0
 19 20  2  0
  7 21  1  0
 21 22  1  0
 22 23  2  0
 23 24  1  0
 24 25  2  0
 20  9  1  0
 25 21  1  0
 18 13  1  0
M  END
