
     RDKit          3D

 24 26  0  0  0  0  0  0  0  0999 V2000
    6.2400    1.0419   -0.3397 C   0  0  0  0  0  0  0  0  0  0  0  0
    5.4300   -0.2162   -0.4862 C   0  0  0  0  0  0  0  0  0  0  0  0
    6.2293   -1.4905   -0.4533 C   0  0  0  0  0  0  0  0  0  0  0  0
    4.0893   -0.2365   -0.6325 C   0  0  0  0  0  0  0  0  0  0  0  0
    3.1861    0.9205   -0.6858 C   0  0  1  0  0  0  0  0  0  0  0  0
    1.7429    0.8592   -0.2356 C   0  0  1  0  0  0  0  0  0  0  0  0
    1.0544   -0.3499    0.2861 C   0  0  0  0  0  0  0  0  0  0  0  0
    1.6183   -1.3061    0.7995 O   0  0  0  0  0  0  0  0  0  0  0  0
   -0.2911   -0.2398    0.1208 O   0  0  0  0  0  0  0  0  0  0  0  0
   -0.9985   -1.3782    0.6081 C   0  0  0  0  0  0  0  0  0  0  0  0
   -2.3924   -1.1870    0.3144 N   0  0  0  0  0  0  0  0  0  0  0  0
   -3.2777   -0.5820    1.1470 C   0  0  0  0  0  0  0  0  0  0  0  0
   -3.0969   -0.1297    2.2626 O   0  0  0  0  0  0  0  0  0  0  0  0
   -4.5630   -0.5673    0.4436 C   0  0  0  0  0  0  0  0  0  0  0  0
   -4.3851   -1.1335   -0.7527 C   0  0  0  0  0  0  0  0  0  0  0  0
   -5.4444   -1.3261   -1.7705 C   0  0  0  0  0  0  0  0  0  0  0  0
   -6.8363   -1.0888   -1.1558 C   0  0  0  0  0  0  0  0  0  0  0  0
   -6.8612    0.1221   -0.2075 C   0  0  0  0  0  0  0  0  0  0  0  0
   -5.8420   -0.0070    0.9397 C   0  0  0  0  0  0  0  0  0  0  0  0
   -2.9820   -1.5416   -0.8561 C   0  0  0  0  0  0  0  0  0  0  0  0
   -2.4928   -2.0911   -1.8257 O   0  0  0  0  0  0  0  0  0  0  0  0
    2.7597    1.6399    0.5880 C   0  0  0  0  0  0  0  0  0  0  0  0
    3.1893    1.1279    1.9445 C   0  0  0  0  0  0  0  0  0  0  0  0
    2.6710    3.1470    0.5348 C   0  0  0  0  0  0  0  0  0  0  0  0
  1  2  1  0
  2  3  1  0
  2  4  2  3
  5  4  1  1
  5  6  1  0
  6  7  1  1
  7  8  2  0
  7  9  1  0
  9 10  1  0
 10 11  1  0
 11 12  1  0
 12 13  2  0
 12 14  1  0
 14 15  2  0
 15 16  1  0
 16 17  1  0
 17 18  1  0
 18 19  1  0
 15 20  1  0
 20 21  2  0
  6 22  1  0
 22 23  1  0
 22 24  1  0
 22  5  1  0
 20 11  1  0
 19 14  1  0
M  END
