
     RDKit          3D

 13 13  0  0  0  0  0  0  0  0999 V2000
   -3.0099    0.6215   -0.6199 C   0  0  0  0  0  0  0  0  0  0  0  0
   -2.2112   -0.6259   -0.2667 C   0  0  1  0  0  0  0  0  0  0  0  0
   -0.7329   -0.3429   -0.1056 C   0  0  0  0  0  0  0  0  0  0  0  0
   -0.2568    0.4165    0.9738 C   0  0  0  0  0  0  0  0  0  0  0  0
    1.1081    0.6772    1.1159 C   0  0  0  0  0  0  0  0  0  0  0  0
    2.0290    0.1792    0.1836 C   0  0  0  0  0  0  0  0  0  0  0  0
    1.5529   -0.5713   -0.9014 C   0  0  0  0  0  0  0  0  0  0  0  0
    0.1871   -0.8318   -1.0428 C   0  0  0  0  0  0  0  0  0  0  0  0
    3.5010    0.4799    0.3220 C   0  0  0  0  0  0  0  0  0  0  0  0
    3.8583    1.6267   -0.3189 F   0  0  0  0  0  0  0  0  0  0  0  0
    4.2970   -0.4994   -0.1923 F   0  0  0  0  0  0  0  0  0  0  0  0
    3.8966    0.6357    1.6166 F   0  0  0  0  0  0  0  0  0  0  0  0
   -2.7360   -1.1822    0.9373 O   0  0  0  0  0  0  0  0  0  0  0  0
  2  1  1  1
  2  3  1  0
  3  4  2  0
  4  5  1  0
  5  6  2  0
  6  7  1  0
  7  8  2  0
  6  9  1  0
  9 10  1  0
  9 11  1  0
  9 12  1  0
  2 13  1  0
  8  3  1  0
M  END
