
     RDKit          3D

 22 23  0  0  0  0  0  0  0  0999 V2000
   -5.3885    0.1201   -2.1093 C   0  0  0  0  0  0  0  0  0  0  0  0
   -4.7649   -0.5148   -0.9916 O   0  0  0  0  0  0  0  0  0  0  0  0
   -3.8489    0.2702   -0.3466 C   0  0  0  0  0  0  0  0  0  0  0  0
   -3.5681    1.4161   -0.6750 O   0  0  0  0  0  0  0  0  0  0  0  0
   -3.2296   -0.5065    0.8214 C   0  0  2  0  0  0  0  0  0  0  0  0
   -4.2837   -0.7226    1.9023 C   0  0  0  0  0  0  0  0  0  0  0  0
   -2.1502    0.2101    1.4370 O   0  0  0  0  0  0  0  0  0  0  0  0
   -0.9432   -0.1529    0.9074 C   0  0  0  0  0  0  0  0  0  0  0  0
   -0.3606    0.6500   -0.0705 C   0  0  0  0  0  0  0  0  0  0  0  0
    0.8848    0.3033   -0.5963 C   0  0  0  0  0  0  0  0  0  0  0  0
    1.5521   -0.8256   -0.1113 C   0  0  0  0  0  0  0  0  0  0  0  0
    2.7693   -1.2421   -0.6021 O   0  0  0  0  0  0  0  0  0  0  0  0
    3.7432   -0.2805   -0.7605 C   0  0  0  0  0  0  0  0  0  0  0  0
    4.1263    0.5359    0.3106 C   0  0  0  0  0  0  0  0  0  0  0  0
    5.1458    1.4738    0.1400 C   0  0  0  0  0  0  0  0  0  0  0  0
    5.7890    1.5818   -1.0927 C   0  0  0  0  0  0  0  0  0  0  0  0
    7.0466    2.7381   -1.2966 Cl  0  0  0  0  0  0  0  0  0  0  0  0
    5.4282    0.7586   -2.1581 C   0  0  0  0  0  0  0  0  0  0  0  0
    4.4082   -0.1787   -1.9882 C   0  0  0  0  0  0  0  0  0  0  0  0
    3.9841   -1.1864   -3.3237 Cl  0  0  0  0  0  0  0  0  0  0  0  0
    0.9636   -1.6255    0.8706 C   0  0  0  0  0  0  0  0  0  0  0  0
   -0.2825   -1.2800    1.3940 C   0  0  0  0  0  0  0  0  0  0  0  0
  1  2  1  0
  2  3  1  0
  3  4  2  0
  3  5  1  0
  5  6  1  1
  5  7  1  0
  7  8  1  0
  8  9  2  0
  9 10  1  0
 10 11  2  0
 11 12  1  0
 12 13  1  0
 13 14  2  0
 14 15  1  0
 15 16  2  0
 16 17  1  0
 16 18  1  0
 18 19  2  0
 19 20  1  0
 11 21  1  0
 21 22  2  0
 22  8  1  0
 19 13  1  0
M  END
