
     RDKit          3D

 26 28  0  0  0  0  0  0  0  0999 V2000
   -5.2878   -1.0341    1.0909 C   0  0  0  0  0  0  0  0  0  0  0  0
   -4.3219   -0.1537    1.8480 C   0  0  0  0  0  0  0  0  0  0  0  0
   -4.0630   -0.6316    3.2583 C   0  0  0  0  0  0  0  0  0  0  0  0
   -4.2701    1.3473    1.6060 C   0  0  2  0  0  0  0  0  0  0  0  0
   -5.2308    1.9906    0.6947 C   0  0  0  0  0  0  0  0  0  0  0  0
   -4.9892    2.9412   -0.2210 C   0  0  0  0  0  0  0  0  0  0  0  0
   -6.2826    3.5735   -1.1789 Cl  0  0  0  0  0  0  0  0  0  0  0  0
   -3.4102    3.5771   -0.4989 Cl  0  0  0  0  0  0  0  0  0  0  0  0
   -3.1808    0.4543    1.0446 C   0  0  1  0  0  0  0  0  0  0  0  0
   -1.8064    0.5155    1.5966 C   0  0  0  0  0  0  0  0  0  0  0  0
   -1.3838    1.4923    2.1958 O   0  0  0  0  0  0  0  0  0  0  0  0
   -1.1409   -0.6397    1.3534 O   0  0  0  0  0  0  0  0  0  0  0  0
    0.2104   -0.6908    1.8196 C   0  0  0  0  0  0  0  0  0  0  0  0
    1.0894   -1.0784    0.6597 C   0  0  0  0  0  0  0  0  0  0  0  0
    1.3373   -2.4277    0.3670 C   0  0  0  0  0  0  0  0  0  0  0  0
    2.1304   -2.7822   -0.7264 C   0  0  0  0  0  0  0  0  0  0  0  0
    2.6831   -1.7925   -1.5388 C   0  0  0  0  0  0  0  0  0  0  0  0
    2.4476   -0.4469   -1.2487 C   0  0  0  0  0  0  0  0  0  0  0  0
    2.9292    0.5727   -2.0373 O   0  0  0  0  0  0  0  0  0  0  0  0
    4.2732    0.5572   -2.3367 C   0  0  0  0  0  0  0  0  0  0  0  0
    5.2625    0.3257   -1.3773 C   0  0  0  0  0  0  0  0  0  0  0  0
    6.6082    0.3625   -1.7465 C   0  0  0  0  0  0  0  0  0  0  0  0
    6.9630    0.6454   -3.0662 C   0  0  0  0  0  0  0  0  0  0  0  0
    5.9739    0.8995   -4.0176 C   0  0  0  0  0  0  0  0  0  0  0  0
    4.6285    0.8626   -3.6511 C   0  0  0  0  0  0  0  0  0  0  0  0
    1.6361   -0.0895   -0.1714 C   0  0  0  0  0  0  0  0  0  0  0  0
  1  2  1  0
  2  3  1  0
  2  4  1  0
  4  5  1  6
  5  6  2  3
  6  7  1  0
  6  8  1  0
  4  9  1  0
  9 10  1  1
 10 11  2  0
 10 12  1  0
 12 13  1  0
 13 14  1  0
 14 15  2  0
 15 16  1  0
 16 17  2  0
 17 18  1  0
 18 19  1  0
 19 20  1  0
 20 21  2  0
 21 22  1  0
 22 23  2  0
 23 24  1  0
 24 25  2  0
 18 26  2  0
  9  2  1  0
 26 14  1  0
 25 20  1  0
M  END
