
     RDKit          3D

 12 13  0  0  0  0  0  0  0  0999 V2000
   -1.3766   -1.5994    0.9792 O   0  0  0  0  0  0  0  0  0  0  0  0
   -0.9357   -1.0601   -0.2668 C   0  0  1  0  0  0  0  0  0  0  0  0
   -2.0567   -0.2323   -0.8887 C   0  0  0  0  0  0  0  0  0  0  0  0
   -2.2919    1.0574   -0.1236 C   0  0  0  0  0  0  0  0  0  0  0  0
   -0.8877    2.1818   -0.3483 S   0  0  0  0  0  0  0  0  0  0  0  0
    0.4731    1.0722   -0.0250 C   0  0  0  0  0  0  0  0  0  0  0  0
    1.7230    1.6681    0.2121 C   0  0  0  0  0  0  0  0  0  0  0  0
    2.8512    0.8904    0.4788 C   0  0  0  0  0  0  0  0  0  0  0  0
    2.7360   -0.4930    0.5110 C   0  0  0  0  0  0  0  0  0  0  0  0
    4.1177   -1.4610    0.8459 Cl  0  0  0  0  0  0  0  0  0  0  0  0
    1.5052   -1.0995    0.2698 C   0  0  0  0  0  0  0  0  0  0  0  0
    0.3583   -0.3277   -0.0134 C   0  0  0  0  0  0  0  0  0  0  0  0
  2  1  1  1
  2  3  1  0
  3  4  1  0
  4  5  1  0
  5  6  1  0
  6  7  2  0
  7  8  1  0
  8  9  2  0
  9 10  1  0
  9 11  1  0
 11 12  2  0
 12  2  1  0
 12  6  1  0
M  END
