
     RDKit          3D

 11 11  0  0  0  0  0  0  0  0999 V2000
   -3.1772   -0.7954    0.7605 C   0  0  0  0  0  0  0  0  0  0  0  0
   -2.4743   -0.2671   -0.4827 C   0  0  2  0  0  0  0  0  0  0  0  0
   -1.0007   -0.0106   -0.2550 C   0  0  0  0  0  0  0  0  0  0  0  0
   -0.5681    1.0121    0.6003 C   0  0  0  0  0  0  0  0  0  0  0  0
    0.7953    1.2398    0.8011 C   0  0  0  0  0  0  0  0  0  0  0  0
    1.7519    0.4539    0.1563 C   0  0  0  0  0  0  0  0  0  0  0  0
    1.3306   -0.5664   -0.6956 C   0  0  0  0  0  0  0  0  0  0  0  0
   -0.0356   -0.7967   -0.8992 C   0  0  0  0  0  0  0  0  0  0  0  0
    3.0484    0.7829    0.4404 O   0  0  0  0  0  0  0  0  0  0  0  0
    4.0610    0.0042   -0.1841 C   0  0  0  0  0  0  0  0  0  0  0  0
   -3.1222    0.9327   -0.9023 O   0  0  0  0  0  0  0  0  0  0  0  0
  2  1  1  1
  2  3  1  0
  3  4  2  0
  4  5  1  0
  5  6  2  0
  6  7  1  0
  7  8  2  0
  6  9  1  0
  9 10  1  0
  2 11  1  0
  8  3  1  0
M  END
