
     RDKit          3D

 26 28  0  0  0  0  0  0  0  0999 V2000
   -5.5895   -0.3819   -0.8890 C   0  0  0  0  0  0  0  0  0  0  0  0
   -4.5129    0.1267    0.0460 C   0  0  0  0  0  0  0  0  0  0  0  0
   -5.0342    0.3626    1.4449 C   0  0  0  0  0  0  0  0  0  0  0  0
   -3.1075   -0.4144   -0.1813 C   0  0  2  0  0  0  0  0  0  0  0  0
   -2.1346   -0.7406    0.8929 C   0  0  0  0  0  0  0  0  0  0  0  0
   -2.3057   -0.4892    2.0763 O   0  0  0  0  0  0  0  0  0  0  0  0
   -1.0343   -1.3375    0.3684 O   0  0  0  0  0  0  0  0  0  0  0  0
   -0.0231   -1.6353    1.3334 C   0  0  0  0  0  0  0  0  0  0  0  0
    1.1973   -2.1052    0.5858 C   0  0  0  0  0  0  0  0  0  0  0  0
    1.5682   -3.4573    0.5785 C   0  0  0  0  0  0  0  0  0  0  0  0
    2.6870   -3.8797   -0.1429 C   0  0  0  0  0  0  0  0  0  0  0  0
    3.4472   -2.9556   -0.8610 C   0  0  0  0  0  0  0  0  0  0  0  0
    3.0958   -1.6061   -0.8489 C   0  0  0  0  0  0  0  0  0  0  0  0
    3.8680   -0.7543   -1.6092 O   0  0  0  0  0  0  0  0  0  0  0  0
    4.1249    0.4917   -1.0844 C   0  0  0  0  0  0  0  0  0  0  0  0
    4.7334    0.6543    0.1630 C   0  0  0  0  0  0  0  0  0  0  0  0
    4.9938    1.9386    0.6423 C   0  0  0  0  0  0  0  0  0  0  0  0
    4.6632    3.0534   -0.1305 C   0  0  0  0  0  0  0  0  0  0  0  0
    4.0793    2.8849   -1.3869 C   0  0  0  0  0  0  0  0  0  0  0  0
    3.8158    1.6023   -1.8690 C   0  0  0  0  0  0  0  0  0  0  0  0
    1.9644   -1.1846   -0.1443 C   0  0  0  0  0  0  0  0  0  0  0  0
   -3.4363    1.0162   -0.5585 C   0  0  2  0  0  0  0  0  0  0  0  0
   -2.8645    2.1524    0.1834 C   0  0  0  0  0  0  0  0  0  0  0  0
   -1.6329    2.6735    0.0597 C   0  0  0  0  0  0  0  0  0  0  0  0
   -1.1606    4.0379    1.0120 Cl  0  0  0  0  0  0  0  0  0  0  0  0
   -0.4733    2.0377   -1.0505 Cl  0  0  0  0  0  0  0  0  0  0  0  0
  1  2  1  0
  2  3  1  0
  2  4  1  0
  4  5  1  1
  5  6  2  0
  5  7  1  0
  7  8  1  0
  8  9  1  0
  9 10  2  0
 10 11  1  0
 11 12  2  0
 12 13  1  0
 13 14  1  0
 14 15  1  0
 15 16  2  0
 16 17  1  0
 17 18  2  0
 18 19  1  0
 19 20  2  0
 13 21  2  0
  4 22  1  0
 22 23  1  1
 23 24  2  3
 24 25  1  0
 24 26  1  0
 22  2  1  0
 21  9  1  0
 20 15  1  0
M  END
