
     RDKit          3D

 26 27  0  0  0  0  0  0  0  0999 V2000
   -3.8277   -0.2668   -3.6767 N   0  0  0  0  0  0  0  0  0  0  0  0
   -3.1446   -0.0469   -2.7626 C   0  0  0  0  0  0  0  0  0  0  0  0
   -2.2697    0.2064   -1.6518 C   0  0  0  0  0  0  0  0  0  0  0  0
   -1.0053   -0.2258   -1.7305 N   0  0  0  0  0  0  0  0  0  0  0  0
   -0.4305    0.1615   -0.5668 N   0  0  0  0  0  0  0  0  0  0  0  0
    0.9149   -0.1863   -0.3074 C   0  0  0  0  0  0  0  0  0  0  0  0
    1.9165    0.1630   -1.2283 C   0  0  0  0  0  0  0  0  0  0  0  0
    1.6322    1.1480   -2.6236 Cl  0  0  0  0  0  0  0  0  0  0  0  0
    3.2477   -0.2051   -0.9921 C   0  0  0  0  0  0  0  0  0  0  0  0
    3.6036   -0.9211    0.1582 C   0  0  0  0  0  0  0  0  0  0  0  0
    5.0356   -1.3368    0.3968 C   0  0  0  0  0  0  0  0  0  0  0  0
    5.3539   -1.3851    1.7192 F   0  0  0  0  0  0  0  0  0  0  0  0
    5.3017   -2.5724   -0.1025 F   0  0  0  0  0  0  0  0  0  0  0  0
    5.9363   -0.4922   -0.1740 F   0  0  0  0  0  0  0  0  0  0  0  0
    2.5959   -1.2804    1.0639 C   0  0  0  0  0  0  0  0  0  0  0  0
    1.2606   -0.9210    0.8370 C   0  0  0  0  0  0  0  0  0  0  0  0
    0.1049   -1.5266    1.9740 Cl  0  0  0  0  0  0  0  0  0  0  0  0
   -1.3228    0.8706    0.2482 C   0  0  0  0  0  0  0  0  0  0  0  0
   -0.9727    1.4521    1.4278 N   0  0  0  0  0  0  0  0  0  0  0  0
   -2.5173    0.8772   -0.4425 C   0  0  0  0  0  0  0  0  0  0  0  0
   -4.0383    1.6665    0.0570 S   0  0  0  0  0  4  0  0  0  0  0  0
   -5.0819    1.2664   -0.9453 O   0  0  0  0  0  0  0  0  0  0  0  0
   -4.2944    0.7806    1.6154 C   0  0  0  0  0  0  0  0  0  0  0  0
   -3.4235    1.2045    2.5741 F   0  0  0  0  0  0  0  0  0  0  0  0
   -4.1296   -0.5608    1.4961 F   0  0  0  0  0  0  0  0  0  0  0  0
   -5.5382    0.9886    2.1180 F   0  0  0  0  0  0  0  0  0  0  0  0
  1  2  3  0
  2  3  1  0
  3  4  2  0
  4  5  1  0
  5  6  1  0
  6  7  2  0
  7  8  1  0
  7  9  1  0
  9 10  2  0
 10 11  1  0
 11 12  1  0
 11 13  1  0
 11 14  1  0
 10 15  1  0
 15 16  2  0
 16 17  1  0
  5 18  1  0
 18 19  1  0
 18 20  2  0
 20 21  1  0
 21 22  2  0
 21 23  1  1
 23 24  1  0
 23 25  1  0
 23 26  1  0
 20  3  1  0
 16  6  1  0
M  END
