
     RDKit          3D

 21 22  0  0  0  0  0  0  0  0999 V2000
    5.1158    0.4536   -0.4492 C   0  0  0  0  0  0  0  0  0  0  0  0
    3.9424   -0.1381   -1.2071 C   0  0  0  0  0  0  0  0  0  0  0  0
    2.9544   -0.6260   -0.2855 O   0  0  0  0  0  0  0  0  0  0  0  0
    2.0407    0.2822    0.1541 C   0  0  0  0  0  0  0  0  0  0  0  0
    2.0085    1.4582   -0.1907 O   0  0  0  0  0  0  0  0  0  0  0  0
    1.0155   -0.3502    1.0897 C   0  0  1  0  0  0  0  0  0  0  0  0
    1.5723   -1.4748    1.9514 C   0  0  0  0  0  0  0  0  0  0  0  0
    0.4632    0.6384    1.9553 O   0  0  0  0  0  0  0  0  0  0  0  0
   -0.8076    0.9266    1.5526 C   0  0  0  0  0  0  0  0  0  0  0  0
   -1.4325    1.8264    2.0912 O   0  0  0  0  0  0  0  0  0  0  0  0
   -1.2052    0.0804    0.5577 N   0  0  0  0  0  0  0  0  0  0  0  0
   -2.4934    0.0655   -0.0694 C   0  0  0  0  0  0  0  0  0  0  0  0
   -2.7466   -0.7229   -1.2064 C   0  0  0  0  0  0  0  0  0  0  0  0
   -4.0045   -0.7349   -1.8221 C   0  0  0  0  0  0  0  0  0  0  0  0
   -4.2611   -1.7139   -3.2154 Cl  0  0  0  0  0  0  0  0  0  0  0  0
   -5.0463    0.0353   -1.3283 C   0  0  0  0  0  0  0  0  0  0  0  0
   -4.8170    0.8229   -0.2102 C   0  0  0  0  0  0  0  0  0  0  0  0
   -6.0970    1.7851    0.4234 Cl  0  0  0  0  0  0  0  0  0  0  0  0
   -3.5619    0.8428    0.4115 C   0  0  0  0  0  0  0  0  0  0  0  0
   -0.1804   -0.7910    0.2958 C   0  0  0  0  0  0  0  0  0  0  0  0
   -0.1759   -1.7792   -0.4272 O   0  0  0  0  0  0  0  0  0  0  0  0
  1  2  1  0
  2  3  1  0
  3  4  1  0
  4  5  2  0
  4  6  1  0
  6  7  1  1
  6  8  1  0
  8  9  1  0
  9 10  2  0
  9 11  1  0
 11 12  1  0
 12 13  2  0
 13 14  1  0
 14 15  1  0
 14 16  2  0
 16 17  1  0
 17 18  1  0
 17 19  2  0
 11 20  1  0
 20 21  2  0
 20  6  1  0
 19 12  1  0
M  END
