
     RDKit          3D

 18 18  0  0  0  0  0  0  0  0999 V2000
   -3.8826   -0.9782    0.9562 C   0  0  0  0  0  0  0  0  0  0  0  0
   -3.5574   -0.6475   -0.4933 C   0  0  0  0  0  0  0  0  0  0  0  0
   -2.5415   -1.5880   -1.1393 C   0  0  0  0  0  0  0  0  0  0  0  0
   -0.9155   -1.6247   -0.3359 S   0  0  0  0  0  0  0  0  0  0  0  0
   -0.1131    0.3158   -0.5817 P   0  0  1  0  0  5  0  0  0  0  0  0
   -0.0851    1.0990   -2.3744 S   0  0  0  0  0  0  0  0  0  0  0  0
   -0.9672    1.2331    0.4603 O   0  0  0  0  0  0  0  0  0  0  0  0
   -0.4662    2.5020    0.8495 C   0  0  0  0  0  0  0  0  0  0  0  0
   -1.5679    3.2478    1.5744 C   0  0  0  0  0  0  0  0  0  0  0  0
    1.3236    0.3415    0.1655 O   0  0  0  0  0  0  0  0  0  0  0  0
    2.4596   -0.3441   -0.1655 C   0  0  0  0  0  0  0  0  0  0  0  0
    2.5522   -1.2188   -1.2483 C   0  0  0  0  0  0  0  0  0  0  0  0
    3.7560   -1.8812   -1.5126 C   0  0  0  0  0  0  0  0  0  0  0  0
    4.8655   -1.6703   -0.6964 C   0  0  0  0  0  0  0  0  0  0  0  0
    6.3395   -2.4908   -1.0306 Cl  0  0  0  0  0  0  0  0  0  0  0  0
    4.7877   -0.8007    0.3860 C   0  0  0  0  0  0  0  0  0  0  0  0
    3.5862   -0.1404    0.6479 C   0  0  0  0  0  0  0  0  0  0  0  0
    3.5259    0.9351    2.0009 Cl  0  0  0  0  0  0  0  0  0  0  0  0
  1  2  1  0
  2  3  1  0
  3  4  1  0
  4  5  1  0
  5  6  2  0
  5  7  1  1
  7  8  1  0
  8  9  1  0
  5 10  1  0
 10 11  1  0
 11 12  2  0
 12 13  1  0
 13 14  2  0
 14 15  1  0
 14 16  1  0
 16 17  2  0
 17 18  1  0
 17 11  1  0
M  END
