
     RDKit          3D

 15 14  0  0  0  0  0  0  0  0999 V2000
   -2.1688    2.6977    0.0973 C   0  0  0  0  0  0  0  0  0  0  0  0
   -1.6897    1.6441   -0.8799 C   0  0  0  0  0  0  0  0  0  0  0  0
   -0.3445    1.3210   -0.5653 O   0  0  0  0  0  0  0  0  0  0  0  0
    0.3021   -0.0083   -1.2166 P   0  0  0  0  0  5  0  0  0  0  0  0
    0.3694   -0.0772   -3.1447 S   0  0  0  0  0  0  0  0  0  0  0  0
   -0.5207   -1.1673   -0.4490 O   0  0  0  0  0  0  0  0  0  0  0  0
   -0.2249   -2.5228   -0.7505 C   0  0  0  0  0  0  0  0  0  0  0  0
   -0.8339   -3.4002    0.3239 C   0  0  0  0  0  0  0  0  0  0  0  0
    1.7343   -0.0662   -0.4794 O   0  0  0  0  0  0  0  0  0  0  0  0
    1.7971    0.1816    0.9191 C   0  0  1  0  0  0  0  0  0  0  0  0
    2.3142   -1.3649    1.6883 Cl  0  0  0  0  0  0  0  0  0  0  0  0
    2.7475    1.3653    1.2631 C   0  0  0  0  0  0  0  0  0  0  0  0
    2.1946    2.8867    0.4697 Cl  0  0  0  0  0  0  0  0  0  0  0  0
    4.4355    1.0646    0.7183 Cl  0  0  0  0  0  0  0  0  0  0  0  0
    2.7703    1.6814    3.0372 Cl  0  0  0  0  0  0  0  0  0  0  0  0
  1  2  1  0
  2  3  1  0
  3  4  1  0
  4  5  2  0
  4  6  1  0
  6  7  1  0
  7  8  1  0
  4  9  1  0
  9 10  1  0
 10 11  1  1
 10 12  1  0
 12 13  1  0
 12 14  1  0
 12 15  1  0
M  END
