
     RDKit          3D

 21 21  0  0  0  0  0  0  0  0999 V2000
   -6.5182   -2.4215   -0.3932 C   0  0  0  0  0  0  0  0  0  0  0  0
   -6.4752   -1.1214    0.3952 C   0  0  0  0  0  0  0  0  0  0  0  0
   -5.0592   -0.6817    0.7799 C   0  0  0  0  0  0  0  0  0  0  0  0
   -4.2080   -0.2612   -0.4238 C   0  0  0  0  0  0  0  0  0  0  0  0
   -2.7507    0.1155   -0.0629 C   0  0  2  0  0  0  0  0  0  0  0  0
   -2.7055    1.3628    0.8508 C   0  0  0  0  0  0  0  0  0  0  0  0
   -1.3109    1.8141    1.2611 C   0  0  0  0  0  0  0  0  0  0  0  0
   -1.9536    0.3121   -1.3686 C   0  0  0  0  0  0  0  0  0  0  0  0
   -0.5494    0.2235   -1.0918 O   0  0  0  0  0  0  0  0  0  0  0  0
    0.2473    0.4338   -2.1661 C   0  0  0  0  0  0  0  0  0  0  0  0
   -0.1267    0.6732   -3.3047 O   0  0  0  0  0  0  0  0  0  0  0  0
    1.6800    0.3462   -1.8153 C   0  0  0  0  0  0  0  0  0  0  0  0
    2.1437    0.1006   -0.5797 C   0  0  0  0  0  0  0  0  0  0  0  0
    3.5715    0.0079   -0.2464 C   0  0  0  0  0  0  0  0  0  0  0  0
    3.9796   -0.9089    0.7279 C   0  0  0  0  0  0  0  0  0  0  0  0
    5.3264   -1.0065    1.0906 C   0  0  0  0  0  0  0  0  0  0  0  0
    6.2861   -0.1848    0.4977 C   0  0  0  0  0  0  0  0  0  0  0  0
    7.5634   -0.3831    0.9429 O   0  0  0  0  0  0  0  0  0  0  0  0
    8.5794    0.4249    0.3621 C   0  0  0  0  0  0  0  0  0  0  0  0
    5.8846    0.7434   -0.4617 C   0  0  0  0  0  0  0  0  0  0  0  0
    4.5352    0.8419   -0.8269 C   0  0  0  0  0  0  0  0  0  0  0  0
  1  2  1  0
  2  3  1  0
  3  4  1  0
  5  4  1  6
  5  6  1  0
  6  7  1  0
  5  8  1  0
  8  9  1  0
  9 10  1  0
 10 11  2  0
 10 12  1  0
 12 13  2  0
 13 14  1  0
 14 15  2  0
 15 16  1  0
 16 17  2  0
 17 18  1  0
 18 19  1  0
 17 20  1  0
 20 21  2  0
 21 14  1  0
M  END
