
     RDKit          3D

 23 24  0  0  0  0  0  0  0  0999 V2000
    3.9819   -0.9726    1.2067 F   0  0  0  0  0  0  0  0  0  0  0  0
    4.4536    0.2899    1.0122 C   0  0  0  0  0  0  0  0  0  0  0  0
    4.1277    0.9881    2.1338 F   0  0  0  0  0  0  0  0  0  0  0  0
    3.8370    0.9324   -0.2387 C   0  0  0  0  0  0  0  0  0  0  0  0
    4.4366    2.1340   -0.4645 F   0  0  0  0  0  0  0  0  0  0  0  0
    4.0977    0.1784   -1.3396 F   0  0  0  0  0  0  0  0  0  0  0  0
    2.4351    1.1909   -0.2033 O   0  0  0  0  0  0  0  0  0  0  0  0
    1.6438    0.0130   -0.0894 C   0  0  0  0  0  0  0  0  0  0  0  0
    0.1687    0.3524   -0.3874 C   0  0  2  0  0  0  0  0  0  0  0  0
   -0.3621    1.4204    0.5911 C   0  0  0  0  0  0  0  0  0  0  0  0
   -1.6930    1.8811    0.2530 N   0  0  0  0  0  0  0  0  0  0  0  0
   -2.8694    1.5503    0.8489 C   0  0  0  0  0  0  0  0  0  0  0  0
   -3.8551    2.1773    0.2495 N   0  0  0  0  0  0  0  0  0  0  0  0
   -3.2148    2.8961   -0.7202 C   0  0  0  0  0  0  0  0  0  0  0  0
   -1.8872    2.7538   -0.7506 N   0  0  0  0  0  0  0  0  0  0  0  0
   -0.6804   -0.9199   -0.3859 C   0  0  0  0  0  0  0  0  0  0  0  0
   -0.8056   -1.6724    0.8004 C   0  0  0  0  0  0  0  0  0  0  0  0
   -1.5852   -2.8307    0.8408 C   0  0  0  0  0  0  0  0  0  0  0  0
   -2.2514   -3.2568   -0.3027 C   0  0  0  0  0  0  0  0  0  0  0  0
   -3.2096   -4.6839   -0.2500 Cl  0  0  0  0  0  0  0  0  0  0  0  0
   -2.1431   -2.5378   -1.4874 C   0  0  0  0  0  0  0  0  0  0  0  0
   -1.3620   -1.3781   -1.5317 C   0  0  0  0  0  0  0  0  0  0  0  0
   -1.2769   -0.5602   -3.0512 Cl  0  0  0  0  0  0  0  0  0  0  0  0
  1  2  1  0
  2  3  1  0
  2  4  1  0
  4  5  1  0
  4  6  1  0
  4  7  1  0
  7  8  1  0
  9  8  1  1
  9 10  1  0
 10 11  1  0
 11 12  1  0
 12 13  2  0
 13 14  1  0
 14 15  2  0
  9 16  1  0
 16 17  2  0
 17 18  1  0
 18 19  2  0
 19 20  1  0
 19 21  1  0
 21 22  2  0
 22 23  1  0
 15 11  1  0
 22 16  1  0
M  END
