
     RDKit          3D

 19 20  0  0  0  0  0  0  0  0999 V2000
   -4.7960    1.4391   -0.7483 C   0  0  0  0  0  0  0  0  0  0  0  0
   -4.4931    0.3918    0.3075 C   0  0  0  0  0  0  0  0  0  0  0  0
   -3.4080   -0.4302   -0.1114 O   0  0  0  0  0  0  0  0  0  0  0  0
   -2.1617   -0.0722    0.4893 C   0  0  2  0  0  0  0  0  0  0  0  0
   -1.7593    1.2860    0.1737 O   0  0  0  0  0  0  0  0  0  0  0  0
   -0.3909    1.2255    0.1786 C   0  0  0  0  0  0  0  0  0  0  0  0
    0.4312    2.3307    0.2109 C   0  0  0  0  0  0  0  0  0  0  0  0
    1.8111    2.1152    0.2070 C   0  0  0  0  0  0  0  0  0  0  0  0
    2.3404    0.8108    0.1630 C   0  0  0  0  0  0  0  0  0  0  0  0
    3.7120    0.7476    0.1585 O   0  0  0  0  0  0  0  0  0  0  0  0
    4.5241   -0.6626    0.2470 S   0  0  0  0  0  6  0  0  0  0  0  0
    6.1545    0.0378    0.2687 C   0  0  0  0  0  0  0  0  0  0  0  0
    4.2843   -1.2823    1.5350 O   0  0  0  0  0  0  0  0  0  0  0  0
    4.3663   -1.3935   -0.9942 O   0  0  0  0  0  0  0  0  0  0  0  0
    1.4841   -0.2933    0.1108 C   0  0  0  0  0  0  0  0  0  0  0  0
    0.1144   -0.0655    0.1207 C   0  0  0  0  0  0  0  0  0  0  0  0
   -1.0263   -1.0281    0.0172 C   0  0  0  0  0  0  0  0  0  0  0  0
   -0.9036   -2.2420    0.9399 C   0  0  0  0  0  0  0  0  0  0  0  0
   -1.1946   -1.4880   -1.4390 C   0  0  0  0  0  0  0  0  0  0  0  0
  1  2  1  0
  2  3  1  0
  4  3  1  6
  4  5  1  0
  5  6  1  0
  6  7  2  0
  7  8  1  0
  8  9  2  0
  9 10  1  0
 10 11  1  0
 11 12  1  0
 11 13  2  0
 11 14  2  0
  9 15  1  0
 15 16  2  0
 16 17  1  0
 17 18  1  0
 17 19  1  0
 17  4  1  0
 16  6  1  0
M  END
