
     RDKit          3D

 20 21  0  0  0  0  0  0  0  0999 V2000
   -3.1232    0.0108   -0.1241 C   0  0  0  0  0  0  0  0  0  0  0  0
   -1.8182   -0.8101   -0.1178 C   0  0  0  0  0  0  0  0  0  0  0  0
   -2.1330   -2.1413   -0.8504 C   0  0  0  0  0  0  0  0  0  0  0  0
   -1.4723   -1.1581    1.3359 C   0  0  0  0  0  0  0  0  0  0  0  0
   -0.6315   -0.1191   -0.8783 C   0  0  1  0  0  0  0  0  0  0  0  0
   -1.0821    0.2311   -2.2048 O   0  0  0  0  0  0  0  0  0  0  0  0
    0.1380    1.1023   -0.2835 C   0  0  2  0  0  0  0  0  0  0  0  0
    1.1827    0.7743    0.8092 C   0  0  0  0  0  0  0  0  0  0  0  0
    2.2866   -0.1683    0.3816 C   0  0  0  0  0  0  0  0  0  0  0  0
    2.4863   -1.3797    1.0599 C   0  0  0  0  0  0  0  0  0  0  0  0
    3.5064   -2.2519    0.6718 C   0  0  0  0  0  0  0  0  0  0  0  0
    4.3396   -1.9149   -0.3913 C   0  0  0  0  0  0  0  0  0  0  0  0
    5.5962   -2.9885   -0.8675 Cl  0  0  0  0  0  0  0  0  0  0  0  0
    4.1643   -0.7101   -1.0663 C   0  0  0  0  0  0  0  0  0  0  0  0
    3.1445    0.1628   -0.6783 C   0  0  0  0  0  0  0  0  0  0  0  0
   -0.7480    2.2026    0.0792 N   0  0  0  0  0  0  0  0  0  0  0  0
   -1.0015    2.7595    1.2944 C   0  0  0  0  0  0  0  0  0  0  0  0
   -1.8385    3.7613    1.1552 N   0  0  0  0  0  0  0  0  0  0  0  0
   -2.0722    3.7864   -0.1883 C   0  0  0  0  0  0  0  0  0  0  0  0
   -1.4337    2.8475   -0.8920 N   0  0  0  0  0  0  0  0  0  0  0  0
  1  2  1  0
  2  3  1  0
  2  4  1  0
  2  5  1  0
  5  6  1  6
  5  7  1  0
  7  8  1  1
  8  9  1  0
  9 10  2  0
 10 11  1  0
 11 12  2  0
 12 13  1  0
 12 14  1  0
 14 15  2  0
  7 16  1  0
 16 17  1  0
 17 18  2  0
 18 19  1  0
 19 20  2  0
 15  9  1  0
 20 16  1  0
M  END
