
     RDKit          3D

 10 11  0  0  0  0  0  0  0  0999 V2000
    0.9894    0.1828   -1.6813 C   0  0  0  0  0  0  0  0  0  0  0  0
    1.0537    0.0402   -0.1552 C   0  0  0  0  0  0  0  0  0  0  0  0
    0.3611   -1.2394    0.4822 C   0  0  2  0  0  0  0  0  0  0  0  0
   -0.9664   -1.6661   -0.1724 C   0  0  0  0  0  0  0  0  0  0  0  0
   -2.0148   -0.5313   -0.1218 C   0  0  0  0  0  0  0  0  0  0  0  0
   -1.3855    0.8305    0.0687 C   0  0  0  0  0  0  0  0  0  0  0  0
   -1.9330    1.9822   -0.3407 C   0  0  0  0  0  0  0  0  0  0  0  0
   -0.0234    0.8287    0.7062 C   0  0  1  0  0  0  0  0  0  0  0  0
    0.1002   -0.3494    1.7371 C   0  0  0  0  0  0  0  0  0  0  0  0
    2.5153    0.2696    0.2751 C   0  0  0  0  0  0  0  0  0  0  0  0
  1  2  1  0
  2  3  1  0
  3  4  1  6
  4  5  1  0
  5  6  1  0
  6  7  2  0
  6  8  1  0
  8  9  1  1
  2 10  1  0
  8  2  1  0
  9  3  1  0
M  END
