
     RDKit          3D

 24 26  0  0  0  0  0  0  0  0999 V2000
   -6.9143    0.7666   -0.6281 C   0  0  0  0  0  0  0  0  0  0  0  0
   -5.4714    0.5820   -1.0112 C   0  0  0  0  0  0  0  0  0  0  0  0
   -5.2470   -0.3114   -2.1999 C   0  0  0  0  0  0  0  0  0  0  0  0
   -4.4820    1.1931   -0.3303 C   0  0  0  0  0  0  0  0  0  0  0  0
   -3.0374    1.1179   -0.5929 C   0  0  2  0  0  0  0  0  0  0  0  0
   -2.2770   -0.1475   -0.2495 C   0  0  1  0  0  0  0  0  0  0  0  0
   -1.2636   -0.6786   -1.1891 C   0  0  0  0  0  0  0  0  0  0  0  0
   -1.5147   -0.9169   -2.3608 O   0  0  0  0  0  0  0  0  0  0  0  0
   -0.0747   -0.8841   -0.5706 O   0  0  0  0  0  0  0  0  0  0  0  0
    0.9468   -1.3354   -1.4557 C   0  0  0  0  0  0  0  0  0  0  0  0
    2.2058   -1.1544   -0.7886 N   0  0  0  0  0  0  0  0  0  0  0  0
    2.8004   -2.0838    0.0026 C   0  0  0  0  0  0  0  0  0  0  0  0
    2.4435   -3.2200    0.2525 O   0  0  0  0  0  0  0  0  0  0  0  0
    4.0138   -1.4574    0.5343 C   0  0  0  0  0  0  0  0  0  0  0  0
    4.0848   -0.2161    0.0465 C   0  0  0  0  0  0  0  0  0  0  0  0
    5.1430    0.7681    0.3720 C   0  0  0  0  0  0  0  0  0  0  0  0
    5.9745    0.2934    1.5778 C   0  0  0  0  0  0  0  0  0  0  0  0
    6.2803   -1.2135    1.5256 C   0  0  0  0  0  0  0  0  0  0  0  0
    5.0058   -2.0737    1.4458 C   0  0  0  0  0  0  0  0  0  0  0  0
    2.9127    0.0051   -0.8032 C   0  0  0  0  0  0  0  0  0  0  0  0
    2.6662    1.0462   -1.3838 O   0  0  0  0  0  0  0  0  0  0  0  0
   -2.0424    1.1233    0.5585 C   0  0  0  0  0  0  0  0  0  0  0  0
   -2.5025    1.0961    1.9969 C   0  0  0  0  0  0  0  0  0  0  0  0
   -0.7855    1.9375    0.3549 C   0  0  0  0  0  0  0  0  0  0  0  0
  1  2  1  0
  2  3  1  0
  2  4  2  3
  5  4  1  1
  5  6  1  0
  6  7  1  6
  7  8  2  0
  7  9  1  0
  9 10  1  0
 10 11  1  0
 11 12  1  0
 12 13  2  0
 12 14  1  0
 14 15  2  0
 15 16  1  0
 16 17  1  0
 17 18  1  0
 18 19  1  0
 15 20  1  0
 20 21  2  0
  6 22  1  0
 22 23  1  0
 22 24  1  0
 22  5  1  0
 20 11  1  0
 19 14  1  0
M  END
