
     RDKit          3D

 20 20  0  0  0  0  0  0  0  0999 V2000
    6.4754    1.6939    0.4729 C   0  0  0  0  0  0  0  0  0  0  0  0
    5.3758    0.6523    0.6134 C   0  0  0  0  0  0  0  0  0  0  0  0
    3.9913    1.3003    0.6125 C   0  0  0  0  0  0  0  0  0  0  0  0
    2.8499    0.3124    0.8847 C   0  0  0  0  0  0  0  0  0  0  0  0
    2.7207   -0.8741   -0.1008 C   0  0  2  0  0  0  0  0  0  0  0  0
    2.4992   -0.3770   -1.5456 C   0  0  0  0  0  0  0  0  0  0  0  0
    2.3377   -1.4971   -2.5647 C   0  0  0  0  0  0  0  0  0  0  0  0
    1.5993   -1.8170    0.3807 C   0  0  0  0  0  0  0  0  0  0  0  0
    0.3304   -1.1608    0.2633 O   0  0  0  0  0  0  0  0  0  0  0  0
   -0.7307   -1.9198    0.6322 C   0  0  0  0  0  0  0  0  0  0  0  0
   -0.6786   -3.0665    1.0481 O   0  0  0  0  0  0  0  0  0  0  0  0
   -1.9982   -1.1610    0.4603 C   0  0  0  0  0  0  0  0  0  0  0  0
   -3.2004   -1.7930    0.7758 C   0  0  0  0  0  0  0  0  0  0  0  0
   -4.4203   -1.1157    0.6261 C   0  0  0  0  0  0  0  0  0  0  0  0
   -4.4927    0.2130    0.1702 C   0  0  0  0  0  0  0  0  0  0  0  0
   -5.7121    0.8794    0.0054 N   0  0  0  0  0  0  0  0  0  0  0  0
   -6.9277    0.2959    0.5708 C   0  0  0  0  0  0  0  0  0  0  0  0
   -5.7115    2.3362   -0.1214 C   0  0  0  0  0  0  0  0  0  0  0  0
   -3.2634    0.8168   -0.1536 C   0  0  0  0  0  0  0  0  0  0  0  0
   -2.0354    0.1514   -0.0097 C   0  0  0  0  0  0  0  0  0  0  0  0
  1  2  1  0
  2  3  1  0
  3  4  1  0
  5  4  1  1
  5  6  1  0
  6  7  1  0
  5  8  1  0
  8  9  1  0
  9 10  1  0
 10 11  2  0
 10 12  1  0
 12 13  2  0
 13 14  1  0
 14 15  2  0
 15 16  1  0
 16 17  1  0
 16 18  1  0
 15 19  1  0
 19 20  2  0
 20 12  1  0
M  END
