
     RDKit          3D

 20 21  0  0  0  0  0  0  0  0999 V2000
    4.9899   -1.2349   -0.3694 C   0  0  0  0  0  0  0  0  0  0  0  0
    3.5379   -1.6841   -0.3287 C   0  0  0  0  0  0  0  0  0  0  0  0
    2.5820   -0.4893   -0.2924 C   0  0  0  0  0  0  0  0  0  0  0  0
    1.1162   -0.9551   -0.2472 C   0  0  0  0  0  0  0  0  0  0  0  0
    0.0632    0.1975   -0.2525 C   0  0  2  0  0  0  0  0  0  0  0  0
    0.4185    0.9968   -1.4019 O   0  0  0  0  0  0  0  0  0  0  0  0
    0.2171    1.1041    0.9985 C   0  0  0  0  0  0  0  0  0  0  0  0
   -0.8407    2.0794    1.1835 N   0  0  0  0  0  0  0  0  0  0  0  0
   -1.9133    1.9929    2.0189 C   0  0  0  0  0  0  0  0  0  0  0  0
   -2.6166    3.0995    1.9511 N   0  0  0  0  0  0  0  0  0  0  0  0
   -1.9029    3.8591    1.0694 C   0  0  0  0  0  0  0  0  0  0  0  0
   -0.7963    3.2871    0.5901 N   0  0  0  0  0  0  0  0  0  0  0  0
   -1.3708   -0.3460   -0.4380 C   0  0  0  0  0  0  0  0  0  0  0  0
   -2.1495    0.1347   -1.5183 C   0  0  0  0  0  0  0  0  0  0  0  0
   -3.4515   -0.3165   -1.7544 C   0  0  0  0  0  0  0  0  0  0  0  0
   -4.0187   -1.2538   -0.9053 C   0  0  0  0  0  0  0  0  0  0  0  0
   -5.6179   -1.8160   -1.1912 Cl  0  0  0  0  0  0  0  0  0  0  0  0
   -3.3021   -1.7260    0.1864 C   0  0  0  0  0  0  0  0  0  0  0  0
   -1.9971   -1.2705    0.4274 C   0  0  0  0  0  0  0  0  0  0  0  0
   -1.2666   -1.8695    1.8754 Cl  0  0  0  0  0  0  0  0  0  0  0  0
  1  2  1  0
  2  3  1  0
  3  4  1  0
  4  5  1  0
  5  6  1  6
  5  7  1  0
  7  8  1  0
  8  9  1  0
  9 10  2  0
 10 11  1  0
 11 12  2  0
  5 13  1  0
 13 14  2  0
 14 15  1  0
 15 16  2  0
 16 17  1  0
 16 18  1  0
 18 19  2  0
 19 20  1  0
 12  8  1  0
 19 13  1  0
M  END
