
     RDKit          3D

 22 23  0  0  0  0  0  0  0  0999 V2000
    5.4251   -0.1744   -1.7932 C   0  0  0  0  0  0  0  0  0  0  0  0
    4.7935   -0.5284   -0.5619 O   0  0  0  0  0  0  0  0  0  0  0  0
    3.8365    0.3593   -0.1528 C   0  0  0  0  0  0  0  0  0  0  0  0
    3.5274    1.3730   -0.7662 O   0  0  0  0  0  0  0  0  0  0  0  0
    3.2138   -0.1182    1.1646 C   0  0  1  0  0  0  0  0  0  0  0  0
    4.2464   -0.0087    2.2816 C   0  0  0  0  0  0  0  0  0  0  0  0
    2.0946    0.6876    1.5590 O   0  0  0  0  0  0  0  0  0  0  0  0
    0.9154    0.1621    1.1082 C   0  0  0  0  0  0  0  0  0  0  0  0
    0.2837   -0.8510    1.8281 C   0  0  0  0  0  0  0  0  0  0  0  0
   -0.9344   -1.3584    1.3757 C   0  0  0  0  0  0  0  0  0  0  0  0
   -1.5261   -0.8281    0.2269 C   0  0  0  0  0  0  0  0  0  0  0  0
   -2.7143   -1.3959   -0.1754 O   0  0  0  0  0  0  0  0  0  0  0  0
   -3.7140   -0.5387   -0.5800 C   0  0  0  0  0  0  0  0  0  0  0  0
   -4.1589    0.4910    0.2582 C   0  0  0  0  0  0  0  0  0  0  0  0
   -5.2021    1.3217   -0.1548 C   0  0  0  0  0  0  0  0  0  0  0  0
   -5.8068    1.1113   -1.3940 C   0  0  0  0  0  0  0  0  0  0  0  0
   -7.0930    2.1372   -1.8978 Cl  0  0  0  0  0  0  0  0  0  0  0  0
   -5.3842    0.0753   -2.2252 C   0  0  0  0  0  0  0  0  0  0  0  0
   -4.3409   -0.7552   -1.8129 C   0  0  0  0  0  0  0  0  0  0  0  0
   -3.8411   -2.0319   -2.8615 Cl  0  0  0  0  0  0  0  0  0  0  0  0
   -0.8884    0.1884   -0.4909 C   0  0  0  0  0  0  0  0  0  0  0  0
    0.3293    0.6967   -0.0368 C   0  0  0  0  0  0  0  0  0  0  0  0
  1  2  1  0
  2  3  1  0
  3  4  2  0
  3  5  1  0
  5  6  1  1
  5  7  1  0
  7  8  1  0
  8  9  2  0
  9 10  1  0
 10 11  2  0
 11 12  1  0
 12 13  1  0
 13 14  2  0
 14 15  1  0
 15 16  2  0
 16 17  1  0
 16 18  1  0
 18 19  2  0
 19 20  1  0
 11 21  1  0
 21 22  2  0
 22  8  1  0
 19 13  1  0
M  END
