
     RDKit          3D

 26 27  0  0  0  0  0  0  0  0999 V2000
   -3.4700   -4.1013    0.0830 N   0  0  0  0  0  0  0  0  0  0  0  0
   -2.8871   -3.0986    0.1559 C   0  0  0  0  0  0  0  0  0  0  0  0
   -2.1327   -1.8786    0.2345 C   0  0  0  0  0  0  0  0  0  0  0  0
   -0.8297   -1.9193   -0.0687 N   0  0  0  0  0  0  0  0  0  0  0  0
   -0.3906   -0.6498    0.1051 N   0  0  0  0  0  0  0  0  0  0  0  0
    0.9577   -0.3361   -0.1817 C   0  0  0  0  0  0  0  0  0  0  0  0
    1.9900   -1.0618    0.4355 C   0  0  0  0  0  0  0  0  0  0  0  0
    1.7219   -2.2454    1.6704 Cl  0  0  0  0  0  0  0  0  0  0  0  0
    3.3280   -0.7763    0.1329 C   0  0  0  0  0  0  0  0  0  0  0  0
    3.6602    0.2313   -0.7821 C   0  0  0  0  0  0  0  0  0  0  0  0
    5.1026    0.5193   -1.1236 C   0  0  0  0  0  0  0  0  0  0  0  0
    5.9581    0.2260   -0.1074 F   0  0  0  0  0  0  0  0  0  0  0  0
    5.3179    1.8284   -1.4277 F   0  0  0  0  0  0  0  0  0  0  0  0
    5.5283   -0.1946   -2.1987 F   0  0  0  0  0  0  0  0  0  0  0  0
    2.6240    0.9395   -1.4062 C   0  0  0  0  0  0  0  0  0  0  0  0
    1.2820    0.6609   -1.1143 C   0  0  0  0  0  0  0  0  0  0  0  0
    0.1049    1.5289   -2.0394 Cl  0  0  0  0  0  0  0  0  0  0  0  0
   -1.4106    0.2015    0.5498 C   0  0  0  0  0  0  0  0  0  0  0  0
   -1.2148    1.5043    0.8914 N   0  0  0  0  0  0  0  0  0  0  0  0
   -2.5410   -0.5876    0.6090 C   0  0  0  0  0  0  0  0  0  0  0  0
   -4.1676   -0.0890    1.1493 S   0  0  0  0  0  4  0  0  0  0  0  0
   -5.0832   -1.2502    0.8910 O   0  0  0  0  0  0  0  0  0  0  0  0
   -4.4583    1.2207   -0.0670 C   0  0  0  0  0  0  0  0  0  0  0  0
   -4.1527    0.8448   -1.3343 F   0  0  0  0  0  0  0  0  0  0  0  0
   -5.7527    1.6299   -0.0712 F   0  0  0  0  0  0  0  0  0  0  0  0
   -3.7129    2.3274    0.2102 F   0  0  0  0  0  0  0  0  0  0  0  0
  1  2  3  0
  2  3  1  0
  3  4  2  0
  4  5  1  0
  5  6  1  0
  6  7  2  0
  7  8  1  0
  7  9  1  0
  9 10  2  0
 10 11  1  0
 11 12  1  0
 11 13  1  0
 11 14  1  0
 10 15  1  0
 15 16  2  0
 16 17  1  0
  5 18  1  0
 18 19  1  0
 18 20  2  0
 20 21  1  0
 21 22  2  0
 21 23  1  6
 23 24  1  0
 23 25  1  0
 23 26  1  0
 20  3  1  0
 16  6  1  0
M  END
