
     RDKit          3D

 26 28  0  0  0  0  0  0  0  0999 V2000
   -5.4296   -1.5185   -1.2427 C   0  0  0  0  0  0  0  0  0  0  0  0
   -4.0377   -1.0925   -0.8375 C   0  0  0  0  0  0  0  0  0  0  0  0
   -3.0585   -1.1259   -1.9898 C   0  0  0  0  0  0  0  0  0  0  0  0
   -3.9266   -0.0428    0.2576 C   0  0  2  0  0  0  0  0  0  0  0  0
   -2.9100    1.0208    0.1950 C   0  0  0  0  0  0  0  0  0  0  0  0
   -2.4689    1.7896    1.2037 C   0  0  0  0  0  0  0  0  0  0  0  0
   -3.0464    1.6111    2.8206 Cl  0  0  0  0  0  0  0  0  0  0  0  0
   -1.3172    3.0427    0.9036 Cl  0  0  0  0  0  0  0  0  0  0  0  0
   -3.5713   -1.4838    0.5609 C   0  0  2  0  0  0  0  0  0  0  0  0
   -2.1904   -1.9525    0.8237 C   0  0  0  0  0  0  0  0  0  0  0  0
   -1.6437   -2.7881    0.1196 O   0  0  0  0  0  0  0  0  0  0  0  0
   -1.6820   -1.3881    1.9454 O   0  0  0  0  0  0  0  0  0  0  0  0
   -0.3362   -1.7504    2.2682 C   0  0  0  0  0  0  0  0  0  0  0  0
    0.5838   -0.6322    1.8551 C   0  0  0  0  0  0  0  0  0  0  0  0
    0.9457    0.3704    2.7658 C   0  0  0  0  0  0  0  0  0  0  0  0
    1.7713    1.4241    2.3688 C   0  0  0  0  0  0  0  0  0  0  0  0
    2.2390    1.4903    1.0567 C   0  0  0  0  0  0  0  0  0  0  0  0
    1.8901    0.4918    0.1455 C   0  0  0  0  0  0  0  0  0  0  0  0
    2.2742    0.5219   -1.1760 O   0  0  0  0  0  0  0  0  0  0  0  0
    3.5961    0.7965   -1.4427 C   0  0  0  0  0  0  0  0  0  0  0  0
    4.6462    0.1298   -0.8065 C   0  0  0  0  0  0  0  0  0  0  0  0
    5.9653    0.4288   -1.1500 C   0  0  0  0  0  0  0  0  0  0  0  0
    6.2319    1.3791   -2.1366 C   0  0  0  0  0  0  0  0  0  0  0  0
    5.1808    2.0269   -2.7868 C   0  0  0  0  0  0  0  0  0  0  0  0
    3.8611    1.7298   -2.4452 C   0  0  0  0  0  0  0  0  0  0  0  0
    1.0527   -0.5541    0.5357 C   0  0  0  0  0  0  0  0  0  0  0  0
  1  2  1  0
  2  3  1  0
  2  4  1  0
  4  5  1  6
  5  6  2  3
  6  7  1  0
  6  8  1  0
  4  9  1  0
  9 10  1  6
 10 11  2  0
 10 12  1  0
 12 13  1  0
 13 14  1  0
 14 15  2  0
 15 16  1  0
 16 17  2  0
 17 18  1  0
 18 19  1  0
 19 20  1  0
 20 21  2  0
 21 22  1  0
 22 23  2  0
 23 24  1  0
 24 25  2  0
 18 26  2  0
  9  2  1  0
 26 14  1  0
 25 20  1  0
M  END
