
     RDKit          3D

 26 28  0  0  0  0  0  0  0  0999 V2000
   -3.8502   -2.2349    0.3369 C   0  0  0  0  0  0  0  0  0  0  0  0
   -4.4238   -0.8394    0.4111 C   0  0  0  0  0  0  0  0  0  0  0  0
   -5.9336   -0.8181    0.4123 C   0  0  0  0  0  0  0  0  0  0  0  0
   -3.6201    0.2696   -0.2514 C   0  0  1  0  0  0  0  0  0  0  0  0
   -4.2939    1.3551   -0.9820 C   0  0  0  0  0  0  0  0  0  0  0  0
   -3.9643    2.6560   -1.0044 C   0  0  0  0  0  0  0  0  0  0  0  0
   -2.6297    3.2852   -0.1095 Cl  0  0  0  0  0  0  0  0  0  0  0  0
   -4.8866    3.7710   -1.9497 Cl  0  0  0  0  0  0  0  0  0  0  0  0
   -3.7246    0.2130    1.2601 C   0  0  2  0  0  0  0  0  0  0  0  0
   -2.5592   -0.1403    2.1047 C   0  0  0  0  0  0  0  0  0  0  0  0
   -2.6870   -0.7683    3.1446 O   0  0  0  0  0  0  0  0  0  0  0  0
   -1.3972    0.3281    1.5891 O   0  0  0  0  0  0  0  0  0  0  0  0
   -0.2516    0.0155    2.3817 C   0  0  0  0  0  0  0  0  0  0  0  0
    0.9668    0.5378    1.6647 C   0  0  0  0  0  0  0  0  0  0  0  0
    1.7140    1.5986    2.1964 C   0  0  0  0  0  0  0  0  0  0  0  0
    2.8340    2.0870    1.5199 C   0  0  0  0  0  0  0  0  0  0  0  0
    3.2219    1.5183    0.3072 C   0  0  0  0  0  0  0  0  0  0  0  0
    2.4934    0.4511   -0.2212 C   0  0  0  0  0  0  0  0  0  0  0  0
    2.7994   -0.1260   -1.4327 O   0  0  0  0  0  0  0  0  0  0  0  0
    4.1105   -0.4897   -1.6412 C   0  0  0  0  0  0  0  0  0  0  0  0
    4.6746   -0.1522   -2.8719 C   0  0  0  0  0  0  0  0  0  0  0  0
    5.9887   -0.5233   -3.1592 C   0  0  0  0  0  0  0  0  0  0  0  0
    6.7305   -1.2437   -2.2224 C   0  0  0  0  0  0  0  0  0  0  0  0
    6.1581   -1.6002   -1.0005 C   0  0  0  0  0  0  0  0  0  0  0  0
    4.8438   -1.2305   -0.7106 C   0  0  0  0  0  0  0  0  0  0  0  0
    1.3617   -0.0249    0.4418 C   0  0  0  0  0  0  0  0  0  0  0  0
  1  2  1  0
  2  3  1  0
  2  4  1  0
  4  5  1  6
  5  6  2  3
  6  7  1  0
  6  8  1  0
  4  9  1  0
  9 10  1  1
 10 11  2  0
 10 12  1  0
 12 13  1  0
 13 14  1  0
 14 15  2  0
 15 16  1  0
 16 17  2  0
 17 18  1  0
 18 19  1  0
 19 20  1  0
 20 21  2  0
 21 22  1  0
 22 23  2  0
 23 24  1  0
 24 25  2  0
 18 26  2  0
  9  2  1  0
 26 14  1  0
 25 20  1  0
M  END
