
     RDKit          3D

 23 24  0  0  0  0  0  0  0  0999 V2000
    4.9647    1.8722    0.9401 F   0  0  0  0  0  0  0  0  0  0  0  0
    3.6547    1.5549    0.7624 C   0  0  0  0  0  0  0  0  0  0  0  0
    3.3636    1.8548   -0.5329 F   0  0  0  0  0  0  0  0  0  0  0  0
    3.3970    0.0727    1.0622 C   0  0  0  0  0  0  0  0  0  0  0  0
    4.1501   -0.7447    0.2845 F   0  0  0  0  0  0  0  0  0  0  0  0
    3.7353   -0.2038    2.3498 F   0  0  0  0  0  0  0  0  0  0  0  0
    2.0235   -0.3047    0.9349 O   0  0  0  0  0  0  0  0  0  0  0  0
    1.6888   -0.7259   -0.3864 C   0  0  0  0  0  0  0  0  0  0  0  0
    0.1611   -0.8880   -0.5188 C   0  0  1  0  0  0  0  0  0  0  0  0
   -0.3681   -1.8689    0.5484 C   0  0  0  0  0  0  0  0  0  0  0  0
   -1.7704   -2.1901    0.3867 N   0  0  0  0  0  0  0  0  0  0  0  0
   -2.3394   -2.9977   -0.5475 C   0  0  0  0  0  0  0  0  0  0  0  0
   -3.6356   -3.0524   -0.3471 N   0  0  0  0  0  0  0  0  0  0  0  0
   -3.8099   -2.2565    0.7494 C   0  0  0  0  0  0  0  0  0  0  0  0
   -2.6930   -1.7140    1.2419 N   0  0  0  0  0  0  0  0  0  0  0  0
   -0.5013    0.4927   -0.5472 C   0  0  0  0  0  0  0  0  0  0  0  0
   -0.8884    1.1291    0.6475 C   0  0  0  0  0  0  0  0  0  0  0  0
   -1.4795    2.3955    0.6346 C   0  0  0  0  0  0  0  0  0  0  0  0
   -1.6822    3.0538   -0.5724 C   0  0  0  0  0  0  0  0  0  0  0  0
   -2.4044    4.6145   -0.5847 Cl  0  0  0  0  0  0  0  0  0  0  0  0
   -1.2952    2.4604   -1.7679 C   0  0  0  0  0  0  0  0  0  0  0  0
   -0.7058    1.1921   -1.7558 C   0  0  0  0  0  0  0  0  0  0  0  0
   -0.2265    0.5418   -3.2861 Cl  0  0  0  0  0  0  0  0  0  0  0  0
  1  2  1  0
  2  3  1  0
  2  4  1  0
  4  5  1  0
  4  6  1  0
  4  7  1  0
  7  8  1  0
  9  8  1  1
  9 10  1  0
 10 11  1  0
 11 12  1  0
 12 13  2  0
 13 14  1  0
 14 15  2  0
  9 16  1  0
 16 17  2  0
 17 18  1  0
 18 19  2  0
 19 20  1  0
 19 21  1  0
 21 22  2  0
 22 23  1  0
 15 11  1  0
 22 16  1  0
M  END
