
     RDKit          3D

 22 23  0  0  0  0  0  0  0  0999 V2000
   -5.9076    1.0153    1.9012 C   0  0  0  0  0  0  0  0  0  0  0  0
   -4.6172    0.6574    1.4069 O   0  0  0  0  0  0  0  0  0  0  0  0
   -4.6391   -0.0157    0.2184 C   0  0  0  0  0  0  0  0  0  0  0  0
   -5.6629   -0.3389   -0.3731 O   0  0  0  0  0  0  0  0  0  0  0  0
   -3.2163   -0.3669   -0.2298 C   0  0  1  0  0  0  0  0  0  0  0  0
   -3.2256   -0.8186   -1.6872 C   0  0  0  0  0  0  0  0  0  0  0  0
   -2.3984    0.7992   -0.1096 O   0  0  0  0  0  0  0  0  0  0  0  0
   -1.0926    0.6512    0.2629 C   0  0  0  0  0  0  0  0  0  0  0  0
   -0.3579   -0.5350    0.2440 C   0  0  0  0  0  0  0  0  0  0  0  0
    0.9838   -0.5384    0.6425 C   0  0  0  0  0  0  0  0  0  0  0  0
    1.5975    0.6508    1.0404 C   0  0  0  0  0  0  0  0  0  0  0  0
    2.9032    0.7088    1.4710 O   0  0  0  0  0  0  0  0  0  0  0  0
    3.8443    0.0716    0.6921 C   0  0  0  0  0  0  0  0  0  0  0  0
    3.9840    0.3893   -0.6644 C   0  0  0  0  0  0  0  0  0  0  0  0
    4.9714   -0.2373   -1.4267 C   0  0  0  0  0  0  0  0  0  0  0  0
    5.8239   -1.1655   -0.8290 C   0  0  0  0  0  0  0  0  0  0  0  0
    7.0388   -1.9355   -1.7731 Cl  0  0  0  0  0  0  0  0  0  0  0  0
    5.7051   -1.4718    0.5256 C   0  0  0  0  0  0  0  0  0  0  0  0
    4.7179   -0.8456    1.2882 C   0  0  0  0  0  0  0  0  0  0  0  0
    4.5945   -1.2439    2.9630 Cl  0  0  0  0  0  0  0  0  0  0  0  0
    0.8662    1.8351    1.0747 C   0  0  0  0  0  0  0  0  0  0  0  0
   -0.4711    1.8342    0.6745 C   0  0  0  0  0  0  0  0  0  0  0  0
  1  2  1  0
  2  3  1  0
  3  4  2  0
  3  5  1  0
  5  6  1  6
  5  7  1  0
  7  8  1  0
  8  9  2  0
  9 10  1  0
 10 11  2  0
 11 12  1  0
 12 13  1  0
 13 14  2  0
 14 15  1  0
 15 16  2  0
 16 17  1  0
 16 18  1  0
 18 19  2  0
 19 20  1  0
 11 21  1  0
 21 22  2  0
 22  8  1  0
 19 13  1  0
M  END
