
     RDKit          3D

  7  6  0  0  0  0  0  0  0  0999 V2000
    2.4625   -0.7246   -0.6757 C   0  0  0  0  0  0  0  0  0  0  0  0
    1.2927   -0.3368    0.2302 C   0  0  2  0  0  0  0  0  0  0  0  0
    0.0590    0.0324   -0.6142 C   0  0  0  0  0  0  0  0  0  0  0  0
   -1.1985    0.4296    0.1882 C   0  0  0  0  0  0  0  0  0  0  0  0
   -1.6926   -0.6982    1.0951 C   0  0  0  0  0  0  0  0  0  0  0  0
   -2.3152    0.8428   -0.7751 C   0  0  0  0  0  0  0  0  0  0  0  0
    1.6894    0.7783    1.0901 N   0  0  0  0  0  0  0  0  0  0  0  0
  2  1  1  6
  2  3  1  0
  3  4  1  0
  4  5  1  0
  4  6  1  0
  2  7  1  0
M  END
