
     RDKit          3D

 10 10  0  0  0  0  0  0  0  0999 V2000
   -1.7709    1.4087    1.3541 C   0  0  0  0  0  0  0  0  0  0  0  0
   -2.1115    0.6006    0.1110 C   0  0  0  0  0  0  0  0  0  0  0  0
   -0.9867    0.5877   -0.9307 C   0  0  1  0  0  0  0  0  0  0  0  0
    0.2819   -0.0979   -0.4681 C   0  0  0  0  0  0  0  0  0  0  0  0
    0.2953   -1.4699   -0.1706 C   0  0  0  0  0  0  0  0  0  0  0  0
    1.4694   -2.0949    0.2520 C   0  0  0  0  0  0  0  0  0  0  0  0
    2.6441   -1.3573    0.3811 C   0  0  0  0  0  0  0  0  0  0  0  0
    2.6461    0.0047    0.0872 C   0  0  0  0  0  0  0  0  0  0  0  0
    1.4725    0.6317   -0.3360 C   0  0  0  0  0  0  0  0  0  0  0  0
   -1.4732   -0.0676   -2.1049 O   0  0  0  0  0  0  0  0  0  0  0  0
  1  2  1  0
  2  3  1  0
  3  4  1  0
  4  5  2  0
  5  6  1  0
  6  7  2  0
  7  8  1  0
  8  9  2  0
  3 10  1  6
  9  4  1  0
M  END
