
     RDKit          3D

 25 27  0  0  0  0  0  0  0  0999 V2000
   -2.8496   -2.1569    0.1971 C   0  0  0  0  0  0  0  0  0  0  0  0
   -3.6392   -1.0206   -0.4788 C   0  0  0  0  0  0  0  0  0  0  0  0
   -5.1408   -1.3982   -0.4507 C   0  0  0  0  0  0  0  0  0  0  0  0
   -3.2295   -0.9423   -1.9642 C   0  0  0  0  0  0  0  0  0  0  0  0
   -3.4331    0.3561    0.2489 C   0  0  1  0  0  0  0  0  0  0  0  0
   -4.1512    0.3605    1.5062 O   0  0  0  0  0  0  0  0  0  0  0  0
   -1.9733    0.8174    0.5409 C   0  0  1  0  0  0  0  0  0  0  0  0
   -1.0998    0.5643   -0.5625 O   0  0  0  0  0  0  0  0  0  0  0  0
    0.2307    0.3606   -0.3271 C   0  0  0  0  0  0  0  0  0  0  0  0
    0.9356   -0.1586   -1.4143 C   0  0  0  0  0  0  0  0  0  0  0  0
    2.3055   -0.4234   -1.3204 C   0  0  0  0  0  0  0  0  0  0  0  0
    3.0081   -0.1673   -0.1352 C   0  0  0  0  0  0  0  0  0  0  0  0
    4.4505   -0.4405   -0.0309 C   0  0  0  0  0  0  0  0  0  0  0  0
    4.9629   -1.2428    1.0024 C   0  0  0  0  0  0  0  0  0  0  0  0
    6.3326   -1.5030    1.1016 C   0  0  0  0  0  0  0  0  0  0  0  0
    7.2140   -0.9632    0.1685 C   0  0  0  0  0  0  0  0  0  0  0  0
    6.7275   -0.1642   -0.8630 C   0  0  0  0  0  0  0  0  0  0  0  0
    5.3575    0.0938   -0.9615 C   0  0  0  0  0  0  0  0  0  0  0  0
    2.2913    0.3684    0.9460 C   0  0  0  0  0  0  0  0  0  0  0  0
    0.9180    0.6345    0.8527 C   0  0  0  0  0  0  0  0  0  0  0  0
   -1.9741    2.2529    0.8453 N   0  0  0  0  0  0  0  0  0  0  0  0
   -2.0456    2.8243    2.0812 C   0  0  0  0  0  0  0  0  0  0  0  0
   -1.9901    4.1311    1.9690 N   0  0  0  0  0  0  0  0  0  0  0  0
   -1.9165    4.3188    0.6180 C   0  0  0  0  0  0  0  0  0  0  0  0
   -1.9156    3.2032   -0.1151 N   0  0  0  0  0  0  0  0  0  0  0  0
  1  2  1  0
  2  3  1  0
  2  4  1  0
  2  5  1  0
  5  6  1  1
  5  7  1  0
  7  8  1  6
  8  9  1  0
  9 10  2  0
 10 11  1  0
 11 12  2  0
 12 13  1  0
 13 14  2  0
 14 15  1  0
 15 16  2  0
 16 17  1  0
 17 18  2  0
 12 19  1  0
 19 20  2  0
  7 21  1  0
 21 22  1  0
 22 23  2  0
 23 24  1  0
 24 25  2  0
 20  9  1  0
 25 21  1  0
 18 13  1  0
M  END
