
     RDKit          3D

 10 11  0  0  0  0  0  0  0  0999 V2000
    2.6513   -1.0200   -0.6237 C   0  0  0  0  0  0  0  0  0  0  0  0
    1.5234   -0.1109   -0.2694 C   0  0  0  0  0  0  0  0  0  0  0  0
    1.4082    1.1761   -0.6559 C   0  0  0  0  0  0  0  0  0  0  0  0
    0.2032    2.0025   -0.2530 C   0  0  0  0  0  0  0  0  0  0  0  0
   -0.7426    1.1373    0.6076 C   0  0  2  0  0  0  0  0  0  0  0  0
    0.0746    0.4115    1.7277 C   0  0  0  0  0  0  0  0  0  0  0  0
    0.4073   -0.6339    0.6007 C   0  0  1  0  0  0  0  0  0  0  0  0
   -1.0510   -0.3171    0.0381 C   0  0  0  0  0  0  0  0  0  0  0  0
   -2.1946   -1.0687    0.7484 C   0  0  0  0  0  0  0  0  0  0  0  0
   -1.2866   -0.4477   -1.4724 C   0  0  0  0  0  0  0  0  0  0  0  0
  1  2  1  0
  2  3  2  0
  3  4  1  0
  5  4  1  6
  5  6  1  0
  7  6  1  1
  7  8  1  0
  8  9  1  0
  8 10  1  0
  7  2  1  0
  8  5  1  0
M  END
