
     RDKit          3D

 26 28  0  0  0  0  0  0  0  0999 V2000
   -3.2565   -0.2438    1.0236 C   0  0  0  0  0  0  0  0  0  0  0  0
   -4.1813   -0.1751   -0.1719 C   0  0  0  0  0  0  0  0  0  0  0  0
   -5.2438   -1.2505   -0.1528 C   0  0  0  0  0  0  0  0  0  0  0  0
   -3.6334    0.2352   -1.5338 C   0  0  2  0  0  0  0  0  0  0  0  0
   -2.2082    0.5617   -1.7757 C   0  0  0  0  0  0  0  0  0  0  0  0
   -1.8693    1.5595   -2.3953 O   0  0  0  0  0  0  0  0  0  0  0  0
   -1.3807   -0.3949   -1.2882 O   0  0  0  0  0  0  0  0  0  0  0  0
    0.0085   -0.1159   -1.4853 C   0  0  0  0  0  0  0  0  0  0  0  0
    0.8273   -1.0401   -0.6116 C   0  0  0  0  0  0  0  0  0  0  0  0
    0.5592   -2.4183   -0.5650 C   0  0  0  0  0  0  0  0  0  0  0  0
    1.3213   -3.2665    0.2429 C   0  0  0  0  0  0  0  0  0  0  0  0
    2.3708   -2.7509    1.0018 C   0  0  0  0  0  0  0  0  0  0  0  0
    2.6679   -1.3883    0.9381 C   0  0  0  0  0  0  0  0  0  0  0  0
    3.6926   -0.9298    1.7361 O   0  0  0  0  0  0  0  0  0  0  0  0
    4.6323   -0.1170    1.1436 C   0  0  0  0  0  0  0  0  0  0  0  0
    5.2586   -0.4410   -0.0620 C   0  0  0  0  0  0  0  0  0  0  0  0
    6.2305    0.4118   -0.5870 C   0  0  0  0  0  0  0  0  0  0  0  0
    6.5841    1.5743    0.0977 C   0  0  0  0  0  0  0  0  0  0  0  0
    5.9736    1.8832    1.3132 C   0  0  0  0  0  0  0  0  0  0  0  0
    5.0013    1.0329    1.8415 C   0  0  0  0  0  0  0  0  0  0  0  0
    1.8950   -0.5313    0.1468 C   0  0  0  0  0  0  0  0  0  0  0  0
   -4.5654    1.1661   -0.7815 C   0  0  2  0  0  0  0  0  0  0  0  0
   -4.0924    2.4274   -0.1859 C   0  0  0  0  0  0  0  0  0  0  0  0
   -4.5632    3.0409    0.9083 C   0  0  0  0  0  0  0  0  0  0  0  0
   -3.8659    4.5281    1.4383 Cl  0  0  0  0  0  0  0  0  0  0  0  0
   -5.8697    2.4023    1.8316 Cl  0  0  0  0  0  0  0  0  0  0  0  0
  1  2  1  0
  2  3  1  0
  2  4  1  0
  4  5  1  1
  5  6  2  0
  5  7  1  0
  7  8  1  0
  8  9  1  0
  9 10  2  0
 10 11  1  0
 11 12  2  0
 12 13  1  0
 13 14  1  0
 14 15  1  0
 15 16  2  0
 16 17  1  0
 17 18  2  0
 18 19  1  0
 19 20  2  0
 13 21  2  0
  4 22  1  0
 22 23  1  1
 23 24  2  3
 24 25  1  0
 24 26  1  0
 22  2  1  0
 21  9  1  0
 20 15  1  0
M  END
