
     RDKit          3D

 26 28  0  0  0  0  0  0  0  0999 V2000
   -3.9880   -1.0423   -0.6011 C   0  0  0  0  0  0  0  0  0  0  0  0
   -4.2873    0.4417   -0.5767 C   0  0  0  0  0  0  0  0  0  0  0  0
   -4.8730    0.9452   -1.8726 C   0  0  0  0  0  0  0  0  0  0  0  0
   -3.3542    1.3844    0.1759 C   0  0  2  0  0  0  0  0  0  0  0  0
   -2.1107    0.9001    0.8159 C   0  0  0  0  0  0  0  0  0  0  0  0
   -1.9009    1.0140    2.0144 O   0  0  0  0  0  0  0  0  0  0  0  0
   -1.2499    0.3959   -0.1027 O   0  0  0  0  0  0  0  0  0  0  0  0
    0.0084   -0.0040    0.4484 C   0  0  0  0  0  0  0  0  0  0  0  0
    0.9968   -0.3681   -0.6394 C   0  0  0  0  0  0  0  0  0  0  0  0
    0.7216   -0.1989   -2.0054 C   0  0  0  0  0  0  0  0  0  0  0  0
    1.6762   -0.5257   -2.9735 C   0  0  0  0  0  0  0  0  0  0  0  0
    2.9233   -1.0145   -2.5898 C   0  0  0  0  0  0  0  0  0  0  0  0
    3.2183   -1.1637   -1.2356 C   0  0  0  0  0  0  0  0  0  0  0  0
    4.4602   -1.6613   -0.9116 O   0  0  0  0  0  0  0  0  0  0  0  0
    5.1816   -0.9778    0.0425 C   0  0  0  0  0  0  0  0  0  0  0  0
    5.8587   -1.7486    0.9902 C   0  0  0  0  0  0  0  0  0  0  0  0
    6.6275   -1.1248    1.9732 C   0  0  0  0  0  0  0  0  0  0  0  0
    6.7300    0.2673    1.9987 C   0  0  0  0  0  0  0  0  0  0  0  0
    6.0720    1.0365    1.0374 C   0  0  0  0  0  0  0  0  0  0  0  0
    5.3037    0.4146    0.0522 C   0  0  0  0  0  0  0  0  0  0  0  0
    2.2558   -0.8658   -0.2645 C   0  0  0  0  0  0  0  0  0  0  0  0
   -4.7485    1.1149    0.7106 C   0  0  2  0  0  0  0  0  0  0  0  0
   -4.9961    0.3143    1.9227 C   0  0  0  0  0  0  0  0  0  0  0  0
   -6.0854   -0.4210    2.2019 C   0  0  0  0  0  0  0  0  0  0  0  0
   -6.1963   -1.2907    3.6924 Cl  0  0  0  0  0  0  0  0  0  0  0  0
   -7.4240   -0.5303    1.1147 Cl  0  0  0  0  0  0  0  0  0  0  0  0
  1  2  1  0
  2  3  1  0
  2  4  1  0
  4  5  1  1
  5  6  2  0
  5  7  1  0
  7  8  1  0
  8  9  1  0
  9 10  2  0
 10 11  1  0
 11 12  2  0
 12 13  1  0
 13 14  1  0
 14 15  1  0
 15 16  2  0
 16 17  1  0
 17 18  2  0
 18 19  1  0
 19 20  2  0
 13 21  2  0
  4 22  1  0
 22 23  1  1
 23 24  2  3
 24 25  1  0
 24 26  1  0
 22  2  1  0
 21  9  1  0
 20 15  1  0
M  END
