
     RDKit          3D

 26 27  0  0  0  0  0  0  0  0999 V2000
   -3.6631   -3.8412   -0.2513 N   0  0  0  0  0  0  0  0  0  0  0  0
   -2.9366   -2.9516   -0.0801 C   0  0  0  0  0  0  0  0  0  0  0  0
   -2.1057   -1.8133    0.1795 C   0  0  0  0  0  0  0  0  0  0  0  0
   -0.8536   -1.7912   -0.2881 N   0  0  0  0  0  0  0  0  0  0  0  0
   -0.3407   -0.6102    0.1553 N   0  0  0  0  0  0  0  0  0  0  0  0
    0.9836   -0.2494   -0.1815 C   0  0  0  0  0  0  0  0  0  0  0  0
    2.0408   -1.1332    0.0921 C   0  0  0  0  0  0  0  0  0  0  0  0
    1.8494   -2.6181    0.9625 Cl  0  0  0  0  0  0  0  0  0  0  0  0
    3.3536   -0.7882   -0.2567 C   0  0  0  0  0  0  0  0  0  0  0  0
    3.6345    0.4294   -0.8897 C   0  0  0  0  0  0  0  0  0  0  0  0
    5.0531    0.8073   -1.2422 C   0  0  0  0  0  0  0  0  0  0  0  0
    5.6507    1.5226   -0.2522 F   0  0  0  0  0  0  0  0  0  0  0  0
    5.8519   -0.2704   -1.4674 F   0  0  0  0  0  0  0  0  0  0  0  0
    5.1317    1.5742   -2.3634 F   0  0  0  0  0  0  0  0  0  0  0  0
    2.5746    1.3058   -1.1588 C   0  0  0  0  0  0  0  0  0  0  0  0
    1.2570    0.9708   -0.8182 C   0  0  0  0  0  0  0  0  0  0  0  0
    0.0333    2.0803   -1.3344 Cl  0  0  0  0  0  0  0  0  0  0  0  0
   -1.2651    0.0960    0.9301 C   0  0  0  0  0  0  0  0  0  0  0  0
   -1.0007    1.2478    1.5947 N   0  0  0  0  0  0  0  0  0  0  0  0
   -2.4158   -0.6589    0.9109 C   0  0  0  0  0  0  0  0  0  0  0  0
   -3.9741   -0.2737    1.6991 S   0  0  0  0  0  4  0  0  0  0  0  0
   -3.7172    0.8883    2.6222 O   0  0  0  0  0  0  0  0  0  0  0  0
   -4.8362    0.3095    0.2097 C   0  0  0  0  0  0  0  0  0  0  0  0
   -4.2036    1.3515   -0.3861 F   0  0  0  0  0  0  0  0  0  0  0  0
   -4.9320   -0.6754   -0.7204 F   0  0  0  0  0  0  0  0  0  0  0  0
   -6.1020    0.7119    0.4855 F   0  0  0  0  0  0  0  0  0  0  0  0
  1  2  3  0
  2  3  1  0
  3  4  2  0
  4  5  1  0
  5  6  1  0
  6  7  2  0
  7  8  1  0
  7  9  1  0
  9 10  2  0
 10 11  1  0
 11 12  1  0
 11 13  1  0
 11 14  1  0
 10 15  1  0
 15 16  2  0
 16 17  1  0
  5 18  1  0
 18 19  1  0
 18 20  2  0
 20 21  1  0
 21 22  2  0
 21 23  1  6
 23 24  1  0
 23 25  1  0
 23 26  1  0
 20  3  1  0
 16  6  1  0
M  END
