
     RDKit          3D

 21 22  0  0  0  0  0  0  0  0999 V2000
   -5.0699    0.5123   -0.7289 C   0  0  0  0  0  0  0  0  0  0  0  0
   -3.9707   -0.5232   -0.8724 C   0  0  0  0  0  0  0  0  0  0  0  0
   -2.9948   -0.3555    0.1682 O   0  0  0  0  0  0  0  0  0  0  0  0
   -1.9998    0.5403   -0.0784 C   0  0  0  0  0  0  0  0  0  0  0  0
   -1.8874    1.1863   -1.1142 O   0  0  0  0  0  0  0  0  0  0  0  0
   -0.9975    0.6066    1.0694 C   0  0  2  0  0  0  0  0  0  0  0  0
   -1.6123    0.3825    2.4439 C   0  0  0  0  0  0  0  0  0  0  0  0
   -0.3429    1.8728    1.0787 O   0  0  0  0  0  0  0  0  0  0  0  0
    0.9330    1.7205    0.6215 C   0  0  0  0  0  0  0  0  0  0  0  0
    1.6427    2.6983    0.4466 O   0  0  0  0  0  0  0  0  0  0  0  0
    1.2318    0.3997    0.4473 N   0  0  0  0  0  0  0  0  0  0  0  0
    2.4944   -0.1284    0.0231 C   0  0  0  0  0  0  0  0  0  0  0  0
    3.6347    0.6848   -0.1016 C   0  0  0  0  0  0  0  0  0  0  0  0
    4.8642    0.1591   -0.5194 C   0  0  0  0  0  0  0  0  0  0  0  0
    6.2345    1.1943   -0.6463 Cl  0  0  0  0  0  0  0  0  0  0  0  0
    4.9959   -1.1862   -0.8292 C   0  0  0  0  0  0  0  0  0  0  0  0
    3.8823   -2.0046   -0.7181 C   0  0  0  0  0  0  0  0  0  0  0  0
    4.0176   -3.6768   -1.1067 Cl  0  0  0  0  0  0  0  0  0  0  0  0
    2.6494   -1.4886   -0.2996 C   0  0  0  0  0  0  0  0  0  0  0  0
    0.1347   -0.3421    0.7996 C   0  0  0  0  0  0  0  0  0  0  0  0
    0.0304   -1.5568    0.9120 O   0  0  0  0  0  0  0  0  0  0  0  0
  1  2  1  0
  2  3  1  0
  3  4  1  0
  4  5  2  0
  4  6  1  0
  6  7  1  1
  6  8  1  0
  8  9  1  0
  9 10  2  0
  9 11  1  0
 11 12  1  0
 12 13  2  0
 13 14  1  0
 14 15  1  0
 14 16  2  0
 16 17  1  0
 17 18  1  0
 17 19  2  0
 11 20  1  0
 20 21  2  0
 20  6  1  0
 19 12  1  0
M  END
