
     RDKit          3D

 11 11  0  0  0  0  0  0  0  0999 V2000
    3.2013    0.4198   -0.4981 C   0  0  0  0  0  0  0  0  0  0  0  0
    2.3741   -0.5810    0.2997 C   0  0  1  0  0  0  0  0  0  0  0  0
    0.8993   -0.2511    0.2389 C   0  0  0  0  0  0  0  0  0  0  0  0
    0.3289    0.5905    1.2033 C   0  0  0  0  0  0  0  0  0  0  0  0
   -1.0272    0.9233    1.1429 C   0  0  0  0  0  0  0  0  0  0  0  0
   -1.8390    0.4278    0.1209 C   0  0  0  0  0  0  0  0  0  0  0  0
   -1.2798   -0.4054   -0.8466 C   0  0  0  0  0  0  0  0  0  0  0  0
    0.0787   -0.7387   -0.7883 C   0  0  0  0  0  0  0  0  0  0  0  0
   -3.1447    0.8310    0.1806 O   0  0  0  0  0  0  0  0  0  0  0  0
   -4.0154    0.3319   -0.8266 C   0  0  0  0  0  0  0  0  0  0  0  0
    2.6061   -1.8921   -0.2127 O   0  0  0  0  0  0  0  0  0  0  0  0
  2  1  1  6
  2  3  1  0
  3  4  2  0
  4  5  1  0
  5  6  2  0
  6  7  1  0
  7  8  2  0
  6  9  1  0
  9 10  1  0
  2 11  1  0
  8  3  1  0
M  END
