
     RDKit          3D

 22 23  0  0  0  0  0  0  0  0999 V2000
    4.7205    2.9784    0.6573 C   0  0  0  0  0  0  0  0  0  0  0  0
    3.8482    1.9019    0.3139 O   0  0  0  0  0  0  0  0  0  0  0  0
    4.4921    0.7425   -0.0146 C   0  0  0  0  0  0  0  0  0  0  0  0
    5.7106    0.6213   -0.0675 O   0  0  0  0  0  0  0  0  0  0  0  0
    3.4824   -0.3530   -0.3736 C   0  0  1  0  0  0  0  0  0  0  0  0
    4.1792   -1.7097   -0.4183 C   0  0  0  0  0  0  0  0  0  0  0  0
    2.4658   -0.3835    0.6306 O   0  0  0  0  0  0  0  0  0  0  0  0
    1.1867   -0.6948    0.2671 C   0  0  0  0  0  0  0  0  0  0  0  0
    0.2282   -0.4397    1.2531 C   0  0  0  0  0  0  0  0  0  0  0  0
   -1.1224   -0.7143    1.0269 C   0  0  0  0  0  0  0  0  0  0  0  0
   -1.5213   -1.2402   -0.2013 C   0  0  0  0  0  0  0  0  0  0  0  0
   -2.8264   -1.5657   -0.4923 O   0  0  0  0  0  0  0  0  0  0  0  0
   -3.7945   -0.6515   -0.1392 C   0  0  0  0  0  0  0  0  0  0  0  0
   -3.7333    0.6693   -0.5999 C   0  0  0  0  0  0  0  0  0  0  0  0
   -4.7466    1.5695   -0.2658 C   0  0  0  0  0  0  0  0  0  0  0  0
   -5.8232    1.1437    0.5124 C   0  0  0  0  0  0  0  0  0  0  0  0
   -7.0697    2.2572    0.9210 Cl  0  0  0  0  0  0  0  0  0  0  0  0
   -5.9025   -0.1749    0.9569 C   0  0  0  0  0  0  0  0  0  0  0  0
   -4.8894   -1.0752    0.6233 C   0  0  0  0  0  0  0  0  0  0  0  0
   -5.0158   -2.7024    1.1848 Cl  0  0  0  0  0  0  0  0  0  0  0  0
   -0.5683   -1.5292   -1.1772 C   0  0  0  0  0  0  0  0  0  0  0  0
    0.7839   -1.2531   -0.9462 C   0  0  0  0  0  0  0  0  0  0  0  0
  1  2  1  0
  2  3  1  0
  3  4  2  0
  3  5  1  0
  5  6  1  1
  5  7  1  0
  7  8  1  0
  8  9  2  0
  9 10  1  0
 10 11  2  0
 11 12  1  0
 12 13  1  0
 13 14  2  0
 14 15  1  0
 15 16  2  0
 16 17  1  0
 16 18  1  0
 18 19  2  0
 19 20  1  0
 11 21  1  0
 21 22  2  0
 22  8  1  0
 19 13  1  0
M  END
