
     RDKit          3D

 20 21  0  0  0  0  0  0  0  0999 V2000
   -1.0259   -1.4538    1.2273 C   0  0  0  0  0  0  0  0  0  0  0  0
   -1.8566   -0.4727    0.3825 C   0  0  0  0  0  0  0  0  0  0  0  0
   -2.5469    0.5110    1.3439 C   0  0  0  0  0  0  0  0  0  0  0  0
   -2.9638   -1.2917   -0.3235 C   0  0  0  0  0  0  0  0  0  0  0  0
   -0.9875    0.2544   -0.7086 C   0  0  2  0  0  0  0  0  0  0  0  0
   -0.4727   -0.7358   -1.6037 O   0  0  0  0  0  0  0  0  0  0  0  0
    0.1251    1.1993   -0.2250 C   0  0  0  0  0  0  0  0  0  0  0  0
    1.4301    0.8581   -0.0469 C   0  0  0  0  0  0  0  0  0  0  0  0
    2.1228   -0.4167   -0.2614 C   0  0  0  0  0  0  0  0  0  0  0  0
    2.3806   -1.2687    0.8177 C   0  0  0  0  0  0  0  0  0  0  0  0
    3.0738   -2.4665    0.6232 C   0  0  0  0  0  0  0  0  0  0  0  0
    3.5296   -2.8030   -0.6493 C   0  0  0  0  0  0  0  0  0  0  0  0
    4.3855   -4.2759   -0.8896 Cl  0  0  0  0  0  0  0  0  0  0  0  0
    3.3095   -1.9466   -1.7259 C   0  0  0  0  0  0  0  0  0  0  0  0
    2.6159   -0.7494   -1.5295 C   0  0  0  0  0  0  0  0  0  0  0  0
   -0.2336    2.5667    0.0009 N   0  0  0  0  0  0  0  0  0  0  0  0
   -1.4406    3.2050   -0.2671 C   0  0  0  0  0  0  0  0  0  0  0  0
   -1.4125    4.4725    0.0677 N   0  0  0  0  0  0  0  0  0  0  0  0
   -0.1521    4.6227    0.5351 C   0  0  0  0  0  0  0  0  0  0  0  0
    0.6035    3.5293    0.5082 N   0  0  0  0  0  0  0  0  0  0  0  0
  1  2  1  0
  2  3  1  0
  2  4  1  0
  2  5  1  0
  5  6  1  1
  5  7  1  0
  7  8  2  0
  8  9  1  0
  9 10  2  0
 10 11  1  0
 11 12  2  0
 12 13  1  0
 12 14  1  0
 14 15  2  0
  7 16  1  0
 16 17  1  0
 17 18  2  0
 18 19  1  0
 19 20  2  0
 15  9  1  0
 20 16  1  0
M  END
