
     RDKit          3D

 25 27  0  0  0  0  0  0  0  0999 V2000
   -4.9997   -0.0468    0.0445 C   0  0  0  0  0  0  0  0  0  0  0  0
   -4.0409   -0.9794    0.8062 C   0  0  0  0  0  0  0  0  0  0  0  0
   -4.8504   -1.6110    1.9649 C   0  0  0  0  0  0  0  0  0  0  0  0
   -3.6068   -2.1144   -0.1400 C   0  0  0  0  0  0  0  0  0  0  0  0
   -2.7922   -0.2559    1.4174 C   0  0  2  0  0  0  0  0  0  0  0  0
   -3.1965    0.7639    2.3511 O   0  0  0  0  0  0  0  0  0  0  0  0
   -1.6724    0.2506    0.4539 C   0  0  2  0  0  0  0  0  0  0  0  0
   -0.5234    0.5767    1.2671 O   0  0  0  0  0  0  0  0  0  0  0  0
    0.7252    0.3839    0.7478 C   0  0  0  0  0  0  0  0  0  0  0  0
    1.7487    0.3553    1.6959 C   0  0  0  0  0  0  0  0  0  0  0  0
    3.0793    0.1734    1.3059 C   0  0  0  0  0  0  0  0  0  0  0  0
    3.4199    0.0265   -0.0461 C   0  0  0  0  0  0  0  0  0  0  0  0
    4.8192   -0.1625   -0.4623 C   0  0  0  0  0  0  0  0  0  0  0  0
    5.4071    0.6725   -1.4273 C   0  0  0  0  0  0  0  0  0  0  0  0
    6.7357    0.4939   -1.8226 C   0  0  0  0  0  0  0  0  0  0  0  0
    7.4996   -0.5249   -1.2596 C   0  0  0  0  0  0  0  0  0  0  0  0
    6.9369   -1.3642   -0.3016 C   0  0  0  0  0  0  0  0  0  0  0  0
    5.6084   -1.1835    0.0935 C   0  0  0  0  0  0  0  0  0  0  0  0
    2.3819    0.0732   -0.9900 C   0  0  0  0  0  0  0  0  0  0  0  0
    1.0477    0.2533   -0.6006 C   0  0  0  0  0  0  0  0  0  0  0  0
   -2.0410    1.4269   -0.3122 N   0  0  0  0  0  0  0  0  0  0  0  0
   -2.1289    2.7158    0.1200 C   0  0  0  0  0  0  0  0  0  0  0  0
   -2.4859    3.4918   -0.8770 N   0  0  0  0  0  0  0  0  0  0  0  0
   -2.5550    2.6274   -1.9306 C   0  0  0  0  0  0  0  0  0  0  0  0
   -2.2858    1.3512   -1.6406 N   0  0  0  0  0  0  0  0  0  0  0  0
  1  2  1  0
  2  3  1  0
  2  4  1  0
  2  5  1  0
  5  6  1  6
  5  7  1  0
  7  8  1  1
  8  9  1  0
  9 10  2  0
 10 11  1  0
 11 12  2  0
 12 13  1  0
 13 14  2  0
 14 15  1  0
 15 16  2  0
 16 17  1  0
 17 18  2  0
 12 19  1  0
 19 20  2  0
  7 21  1  0
 21 22  1  0
 22 23  2  0
 23 24  1  0
 24 25  2  0
 20  9  1  0
 25 21  1  0
 18 13  1  0
M  END
