
     RDKit          3D

 26 28  0  0  0  0  0  0  0  0999 V2000
   -4.5100    1.8584   -0.1013 C   0  0  0  0  0  0  0  0  0  0  0  0
   -4.2861    0.4869   -0.6956 C   0  0  0  0  0  0  0  0  0  0  0  0
   -5.5712   -0.2116   -1.0719 C   0  0  0  0  0  0  0  0  0  0  0  0
   -3.0838   -0.2942   -0.1858 C   0  0  1  0  0  0  0  0  0  0  0  0
   -3.1626   -1.7474    0.0331 C   0  0  0  0  0  0  0  0  0  0  0  0
   -2.1964   -2.6596   -0.1574 C   0  0  0  0  0  0  0  0  0  0  0  0
   -0.6270   -2.2365   -0.7368 Cl  0  0  0  0  0  0  0  0  0  0  0  0
   -2.4968   -4.3278    0.1808 Cl  0  0  0  0  0  0  0  0  0  0  0  0
   -3.0873    0.2469   -1.6030 C   0  0  2  0  0  0  0  0  0  0  0  0
   -2.1820    1.3533   -1.9932 C   0  0  0  0  0  0  0  0  0  0  0  0
   -2.5604    2.2902   -2.6795 O   0  0  0  0  0  0  0  0  0  0  0  0
   -0.9291    1.1603   -1.5183 O   0  0  0  0  0  0  0  0  0  0  0  0
   -0.0076    2.1951   -1.8698 C   0  0  0  0  0  0  0  0  0  0  0  0
    1.3555    1.8287   -1.3349 C   0  0  0  0  0  0  0  0  0  0  0  0
    2.4989    1.9784   -2.1344 C   0  0  0  0  0  0  0  0  0  0  0  0
    3.7645    1.6617   -1.6337 C   0  0  0  0  0  0  0  0  0  0  0  0
    3.9024    1.1904   -0.3291 C   0  0  0  0  0  0  0  0  0  0  0  0
    2.7694    1.0315    0.4694 C   0  0  0  0  0  0  0  0  0  0  0  0
    2.8573    0.6063    1.7737 O   0  0  0  0  0  0  0  0  0  0  0  0
    3.4251   -0.6301    1.9914 C   0  0  0  0  0  0  0  0  0  0  0  0
    3.1713   -1.7446    1.1872 C   0  0  0  0  0  0  0  0  0  0  0  0
    3.7594   -2.9721    1.4964 C   0  0  0  0  0  0  0  0  0  0  0  0
    4.5862   -3.0890    2.6138 C   0  0  0  0  0  0  0  0  0  0  0  0
    4.8213   -1.9816    3.4286 C   0  0  0  0  0  0  0  0  0  0  0  0
    4.2359   -0.7533    3.1207 C   0  0  0  0  0  0  0  0  0  0  0  0
    1.5074    1.3726   -0.0168 C   0  0  0  0  0  0  0  0  0  0  0  0
  1  2  1  0
  2  3  1  0
  2  4  1  0
  4  5  1  6
  5  6  2  3
  6  7  1  0
  6  8  1  0
  4  9  1  0
  9 10  1  1
 10 11  2  0
 10 12  1  0
 12 13  1  0
 13 14  1  0
 14 15  2  0
 15 16  1  0
 16 17  2  0
 17 18  1  0
 18 19  1  0
 19 20  1  0
 20 21  2  0
 21 22  1  0
 22 23  2  0
 23 24  1  0
 24 25  2  0
 18 26  2  0
  9  2  1  0
 26 14  1  0
 25 20  1  0
M  END
