
     RDKit          3D

 26 28  0  0  0  0  0  0  0  0999 V2000
   -5.2334   -1.0809   -1.2031 C   0  0  0  0  0  0  0  0  0  0  0  0
   -4.7660   -0.4275    0.0773 C   0  0  0  0  0  0  0  0  0  0  0  0
   -5.7722   -0.5729    1.1974 C   0  0  0  0  0  0  0  0  0  0  0  0
   -3.9308    0.8462    0.0610 C   0  0  2  0  0  0  0  0  0  0  0  0
   -3.5657    1.5121   -1.1999 C   0  0  0  0  0  0  0  0  0  0  0  0
   -2.4406    2.1931   -1.4728 C   0  0  0  0  0  0  0  0  0  0  0  0
   -1.1766    2.3855   -0.3141 Cl  0  0  0  0  0  0  0  0  0  0  0  0
   -2.2189    2.9235   -3.0229 Cl  0  0  0  0  0  0  0  0  0  0  0  0
   -3.2956   -0.4674    0.4728 C   0  0  2  0  0  0  0  0  0  0  0  0
   -2.2170   -1.1032   -0.3273 C   0  0  0  0  0  0  0  0  0  0  0  0
   -2.3597   -1.5158   -1.4682 O   0  0  0  0  0  0  0  0  0  0  0  0
   -1.0585   -1.1354    0.3804 O   0  0  0  0  0  0  0  0  0  0  0  0
    0.0448   -1.6635   -0.3560 C   0  0  0  0  0  0  0  0  0  0  0  0
    1.2510   -1.6408    0.5454 C   0  0  0  0  0  0  0  0  0  0  0  0
    1.5814   -2.7594    1.3247 C   0  0  0  0  0  0  0  0  0  0  0  0
    2.6817   -2.7262    2.1842 C   0  0  0  0  0  0  0  0  0  0  0  0
    3.4627   -1.5755    2.2728 C   0  0  0  0  0  0  0  0  0  0  0  0
    3.1481   -0.4631    1.4947 C   0  0  0  0  0  0  0  0  0  0  0  0
    3.9306    0.6569    1.6520 O   0  0  0  0  0  0  0  0  0  0  0  0
    4.4295    1.2497    0.5128 C   0  0  0  0  0  0  0  0  0  0  0  0
    4.9437    0.5280   -0.5675 C   0  0  0  0  0  0  0  0  0  0  0  0
    5.4650    1.2058   -1.6713 C   0  0  0  0  0  0  0  0  0  0  0  0
    5.4849    2.6007   -1.6892 C   0  0  0  0  0  0  0  0  0  0  0  0
    4.9924    3.3204   -0.6002 C   0  0  0  0  0  0  0  0  0  0  0  0
    4.4714    2.6443    0.5036 C   0  0  0  0  0  0  0  0  0  0  0  0
    2.0330   -0.4817    0.6524 C   0  0  0  0  0  0  0  0  0  0  0  0
  1  2  1  0
  2  3  1  0
  2  4  1  0
  4  5  1  6
  5  6  2  3
  6  7  1  0
  6  8  1  0
  4  9  1  0
  9 10  1  6
 10 11  2  0
 10 12  1  0
 12 13  1  0
 13 14  1  0
 14 15  2  0
 15 16  1  0
 16 17  2  0
 17 18  1  0
 18 19  1  0
 19 20  1  0
 20 21  2  0
 21 22  1  0
 22 23  2  0
 23 24  1  0
 24 25  2  0
 18 26  2  0
  9  2  1  0
 26 14  1  0
 25 20  1  0
M  END
