
     RDKit          3D

 26 28  0  0  0  0  0  0  0  0999 V2000
   -4.1341   -1.1618    1.0210 C   0  0  0  0  0  0  0  0  0  0  0  0
   -3.5282    0.0204    0.3032 C   0  0  0  0  0  0  0  0  0  0  0  0
   -2.5270   -0.3788   -0.7567 C   0  0  0  0  0  0  0  0  0  0  0  0
   -4.3354    1.2839    0.0468 C   0  0  1  0  0  0  0  0  0  0  0  0
   -5.7596    1.3475    0.4132 C   0  0  0  0  0  0  0  0  0  0  0  0
   -6.4200    2.3723    0.9738 C   0  0  0  0  0  0  0  0  0  0  0  0
   -5.6425    3.8552    1.3884 Cl  0  0  0  0  0  0  0  0  0  0  0  0
   -8.1108    2.2385    1.3071 Cl  0  0  0  0  0  0  0  0  0  0  0  0
   -3.2801    1.2725    1.1352 C   0  0  2  0  0  0  0  0  0  0  0  0
   -2.0283    2.0488    0.9730 C   0  0  0  0  0  0  0  0  0  0  0  0
   -1.9530    3.0306    0.2501 O   0  0  0  0  0  0  0  0  0  0  0  0
   -1.0269    1.4995    1.7040 O   0  0  0  0  0  0  0  0  0  0  0  0
    0.2613    2.0922    1.5149 C   0  0  0  0  0  0  0  0  0  0  0  0
    1.0037    1.3317    0.4472 C   0  0  0  0  0  0  0  0  0  0  0  0
    1.0529    1.8150   -0.8682 C   0  0  0  0  0  0  0  0  0  0  0  0
    1.7031    1.0884   -1.8675 C   0  0  0  0  0  0  0  0  0  0  0  0
    2.3119   -0.1283   -1.5629 C   0  0  0  0  0  0  0  0  0  0  0  0
    2.2775   -0.6107   -0.2533 C   0  0  0  0  0  0  0  0  0  0  0  0
    2.8202   -1.8242    0.1032 O   0  0  0  0  0  0  0  0  0  0  0  0
    4.1105   -2.0832   -0.3009 C   0  0  0  0  0  0  0  0  0  0  0  0
    4.3713   -3.3608   -0.7974 C   0  0  0  0  0  0  0  0  0  0  0  0
    5.6647   -3.7032   -1.1931 C   0  0  0  0  0  0  0  0  0  0  0  0
    6.6981   -2.7729   -1.0779 C   0  0  0  0  0  0  0  0  0  0  0  0
    6.4416   -1.5028   -0.5604 C   0  0  0  0  0  0  0  0  0  0  0  0
    5.1488   -1.1580   -0.1635 C   0  0  0  0  0  0  0  0  0  0  0  0
    1.6081    0.1017    0.7426 C   0  0  0  0  0  0  0  0  0  0  0  0
  1  2  1  0
  2  3  1  0
  2  4  1  0
  4  5  1  1
  5  6  2  3
  6  7  1  0
  6  8  1  0
  4  9  1  0
  9 10  1  6
 10 11  2  0
 10 12  1  0
 12 13  1  0
 13 14  1  0
 14 15  2  0
 15 16  1  0
 16 17  2  0
 17 18  1  0
 18 19  1  0
 19 20  1  0
 20 21  2  0
 21 22  1  0
 22 23  2  0
 23 24  1  0
 24 25  2  0
 18 26  2  0
  9  2  1  0
 26 14  1  0
 25 20  1  0
M  END
