
     RDKit          3D

 27 28  0  0  0  0  0  0  0  0999 V2000
   -5.7697    0.1934   -4.0185 C   0  0  0  0  0  0  0  0  0  0  0  0
   -4.5229    1.0606   -4.1119 C   0  0  0  0  0  0  0  0  0  0  0  0
   -3.2818    0.4249   -3.4771 C   0  0  0  0  0  0  0  0  0  0  0  0
   -3.3749    0.3039   -1.9512 C   0  0  0  0  0  0  0  0  0  0  0  0
   -2.1671   -0.4078   -1.2996 C   0  0  2  0  0  0  0  0  0  0  0  0
   -2.3515   -0.5497    0.2308 C   0  0  0  0  0  0  0  0  0  0  0  0
   -3.5664   -1.3718    0.6378 C   0  0  0  0  0  0  0  0  0  0  0  0
   -0.8435    0.3212   -1.6035 C   0  0  0  0  0  0  0  0  0  0  0  0
    0.2474   -0.3847   -0.9922 O   0  0  0  0  0  0  0  0  0  0  0  0
    1.4565    0.2045   -1.1739 C   0  0  0  0  0  0  0  0  0  0  0  0
    1.6908    1.2066   -1.8307 O   0  0  0  0  0  0  0  0  0  0  0  0
    2.4798   -0.5623   -0.4410 C   0  0  0  0  0  0  0  0  0  0  0  0
    3.0571   -1.6437   -1.1595 C   0  0  0  0  0  0  0  0  0  0  0  0
    3.5182   -2.5298   -1.7522 N   0  0  0  0  0  0  0  0  0  0  0  0
    2.8218   -0.2090    0.8218 C   0  0  0  0  0  0  0  0  0  0  0  0
    3.8834   -0.9619    1.5331 C   0  0  0  0  0  0  0  0  0  0  0  0
    5.2338   -0.7409    1.2321 C   0  0  0  0  0  0  0  0  0  0  0  0
    6.2295   -1.4466    1.9095 C   0  0  0  0  0  0  0  0  0  0  0  0
    5.8840   -2.3702    2.8944 C   0  0  0  0  0  0  0  0  0  0  0  0
    4.5435   -2.5913    3.2031 C   0  0  0  0  0  0  0  0  0  0  0  0
    3.5449   -1.8890    2.5257 C   0  0  0  0  0  0  0  0  0  0  0  0
    2.1236    0.9207    1.4820 C   0  0  0  0  0  0  0  0  0  0  0  0
    0.9212    0.7064    2.1690 C   0  0  0  0  0  0  0  0  0  0  0  0
    0.2562    1.7755    2.7721 C   0  0  0  0  0  0  0  0  0  0  0  0
    0.7906    3.0617    2.6970 C   0  0  0  0  0  0  0  0  0  0  0  0
    1.9885    3.2815    2.0196 C   0  0  0  0  0  0  0  0  0  0  0  0
    2.6545    2.2150    1.4115 C   0  0  0  0  0  0  0  0  0  0  0  0
  1  2  1  0
  2  3  1  0
  3  4  1  0
  5  4  1  1
  5  6  1  0
  6  7  1  0
  5  8  1  0
  8  9  1  0
  9 10  1  0
 10 11  2  0
 10 12  1  0
 12 13  1  0
 13 14  3  0
 12 15  2  3
 15 16  1  0
 16 17  2  0
 17 18  1  0
 18 19  2  0
 19 20  1  0
 20 21  2  0
 15 22  1  0
 22 23  2  0
 23 24  1  0
 24 25  2  0
 25 26  1  0
 26 27  2  0
 21 16  1  0
 27 22  1  0
M  END
