
     RDKit          3D

 22 23  0  0  0  0  0  0  0  0999 V2000
   -6.5094    0.4043    0.9822 C   0  0  0  0  0  0  0  0  0  0  0  0
   -5.4175   -0.1763    0.2670 O   0  0  0  0  0  0  0  0  0  0  0  0
   -4.3525    0.6671    0.0986 C   0  0  0  0  0  0  0  0  0  0  0  0
   -4.3094    1.8140    0.5246 O   0  0  0  0  0  0  0  0  0  0  0  0
   -3.2360   -0.0530   -0.6656 C   0  0  1  0  0  0  0  0  0  0  0  0
   -3.7125   -0.3644   -2.0807 C   0  0  0  0  0  0  0  0  0  0  0  0
   -2.1011    0.8134   -0.7310 O   0  0  0  0  0  0  0  0  0  0  0  0
   -0.8484    0.2703   -0.7425 C   0  0  0  0  0  0  0  0  0  0  0  0
    0.1834    1.1996   -0.5762 C   0  0  0  0  0  0  0  0  0  0  0  0
    1.5196    0.7933   -0.5723 C   0  0  0  0  0  0  0  0  0  0  0  0
    1.8282   -0.5579   -0.7246 C   0  0  0  0  0  0  0  0  0  0  0  0
    3.1178   -1.0372   -0.7609 O   0  0  0  0  0  0  0  0  0  0  0  0
    3.9984   -0.5447    0.1770 C   0  0  0  0  0  0  0  0  0  0  0  0
    3.7109   -0.6322    1.5446 C   0  0  0  0  0  0  0  0  0  0  0  0
    4.6357   -0.1656    2.4804 C   0  0  0  0  0  0  0  0  0  0  0  0
    5.8488    0.3707    2.0484 C   0  0  0  0  0  0  0  0  0  0  0  0
    6.9857    0.9432    3.2060 Cl  0  0  0  0  0  0  0  0  0  0  0  0
    6.1518    0.4414    0.6898 C   0  0  0  0  0  0  0  0  0  0  0  0
    5.2273   -0.0246   -0.2463 C   0  0  0  0  0  0  0  0  0  0  0  0
    5.6314    0.0718   -1.9215 Cl  0  0  0  0  0  0  0  0  0  0  0  0
    0.8072   -1.4868   -0.9231 C   0  0  0  0  0  0  0  0  0  0  0  0
   -0.5301   -1.0752   -0.9276 C   0  0  0  0  0  0  0  0  0  0  0  0
  1  2  1  0
  2  3  1  0
  3  4  2  0
  3  5  1  0
  5  6  1  6
  5  7  1  0
  7  8  1  0
  8  9  2  0
  9 10  1  0
 10 11  2  0
 11 12  1  0
 12 13  1  0
 13 14  2  0
 14 15  1  0
 15 16  2  0
 16 17  1  0
 16 18  1  0
 18 19  2  0
 19 20  1  0
 11 21  1  0
 21 22  2  0
 22  8  1  0
 19 13  1  0
M  END
