
     RDKit          3D

 22 24  0  0  0  0  0  0  0  0999 V2000
   -2.4054   -1.4456    0.6550 C   0  0  0  0  0  0  0  0  0  0  0  0
   -1.4907   -1.7523   -0.5433 C   0  0  0  0  0  0  0  0  0  0  0  0
   -2.2642   -2.7452   -1.4406 C   0  0  0  0  0  0  0  0  0  0  0  0
   -0.1916   -2.4303   -0.0229 C   0  0  0  0  0  0  0  0  0  0  0  0
    0.9777   -1.6440   -0.6081 C   0  0  0  0  0  0  0  0  0  0  0  0
    0.4491   -0.2022   -0.7655 C   0  0  2  0  0  0  0  0  0  0  0  0
    0.5700    0.5841    0.5561 C   0  0  0  0  0  0  0  0  0  0  0  0
    1.9970    0.7551    1.0397 C   0  0  0  0  0  0  0  0  0  0  0  0
    2.8942    1.5770    0.3419 C   0  0  0  0  0  0  0  0  0  0  0  0
    4.2076    1.7324    0.7906 C   0  0  0  0  0  0  0  0  0  0  0  0
    4.6295    1.0698    1.9409 C   0  0  0  0  0  0  0  0  0  0  0  0
    6.2483    1.2606    2.4921 Cl  0  0  0  0  0  0  0  0  0  0  0  0
    3.7486    0.2557    2.6485 C   0  0  0  0  0  0  0  0  0  0  0  0
    2.4349    0.1007    2.2005 C   0  0  0  0  0  0  0  0  0  0  0  0
   -0.9769   -0.4859   -1.3383 C   0  0  1  0  0  0  0  0  0  0  0  0
   -0.7249   -0.9622   -2.7052 O   0  0  0  0  0  0  0  0  0  0  0  0
   -2.0012    0.6555   -1.5582 C   0  0  0  0  0  0  0  0  0  0  0  0
   -2.0661    1.7667   -0.6487 N   0  0  0  0  0  0  0  0  0  0  0  0
   -1.7100    3.0577   -0.9052 C   0  0  0  0  0  0  0  0  0  0  0  0
   -1.9971    3.8079    0.1326 N   0  0  0  0  0  0  0  0  0  0  0  0
   -2.5741    2.9244    0.9982 C   0  0  0  0  0  0  0  0  0  0  0  0
   -2.6478    1.6657    0.5579 N   0  0  0  0  0  0  0  0  0  0  0  0
  1  2  1  0
  2  3  1  0
  2  4  1  0
  4  5  1  0
  5  6  1  0
  6  7  1  1
  7  8  1  0
  8  9  2  0
  9 10  1  0
 10 11  2  0
 11 12  1  0
 11 13  1  0
 13 14  2  0
  6 15  1  0
 15 16  1  6
 15 17  1  0
 17 18  1  0
 18 19  1  0
 19 20  2  0
 20 21  1  0
 21 22  2  0
 15  2  1  0
 22 18  1  0
 14  8  1  0
M  END
