
     RDKit          3D

 10 10  0  0  0  0  0  0  0  0999 V2000
   -3.6580   -0.2772    0.1734 C   0  0  0  0  0  0  0  0  0  0  0  0
   -2.1573   -0.2838    0.1338 C   0  0  0  0  0  0  0  0  0  0  0  0
   -1.4383   -1.3691    0.4688 C   0  0  0  0  0  0  0  0  0  0  0  0
    0.0651   -1.4003    0.4664 C   0  0  0  0  0  0  0  0  0  0  0  0
    0.7031    0.0088    0.4640 C   0  0  2  0  0  0  0  0  0  0  0  0
   -0.0016    0.8732   -0.5955 C   0  0  0  0  0  0  0  0  0  0  0  0
   -1.5018    1.0022   -0.3046 C   0  0  0  0  0  0  0  0  0  0  0  0
    2.2230    0.0470    0.2969 C   0  0  0  0  0  0  0  0  0  0  0  0
    2.9719   -0.9574   -0.1908 C   0  0  0  0  0  0  0  0  0  0  0  0
    2.8911    1.3177    0.7636 C   0  0  0  0  0  0  0  0  0  0  0  0
  1  2  1  0
  2  3  2  0
  3  4  1  0
  4  5  1  0
  5  6  1  0
  6  7  1  0
  5  8  1  6
  8  9  2  0
  8 10  1  0
  7  2  1  0
M  END
