
     RDKit          3D

 23 24  0  0  0  0  0  0  0  0999 V2000
    5.2770    1.1246    0.2958 F   0  0  0  0  0  0  0  0  0  0  0  0
    3.9602    0.9650   -0.0023 C   0  0  0  0  0  0  0  0  0  0  0  0
    3.2758    1.2486    1.1413 F   0  0  0  0  0  0  0  0  0  0  0  0
    3.6672   -0.4621   -0.4812 C   0  0  0  0  0  0  0  0  0  0  0  0
    4.0276   -1.3910    0.4404 F   0  0  0  0  0  0  0  0  0  0  0  0
    4.3836   -0.7338   -1.6034 F   0  0  0  0  0  0  0  0  0  0  0  0
    2.2966   -0.6639   -0.8293 O   0  0  0  0  0  0  0  0  0  0  0  0
    1.5107   -1.1229    0.2697 C   0  0  0  0  0  0  0  0  0  0  0  0
    0.0174   -1.0028   -0.0944 C   0  0  1  0  0  0  0  0  0  0  0  0
   -0.8362   -1.7258    0.9627 C   0  0  0  0  0  0  0  0  0  0  0  0
   -2.2523   -1.7189    0.6669 N   0  0  0  0  0  0  0  0  0  0  0  0
   -2.9093   -2.4076   -0.3033 C   0  0  0  0  0  0  0  0  0  0  0  0
   -4.1945   -2.1504   -0.2265 N   0  0  0  0  0  0  0  0  0  0  0  0
   -4.2722   -1.2874    0.8294 C   0  0  0  0  0  0  0  0  0  0  0  0
   -3.1072   -1.0016    1.4172 N   0  0  0  0  0  0  0  0  0  0  0  0
   -0.3796    0.4642   -0.2820 C   0  0  0  0  0  0  0  0  0  0  0  0
   -0.3078    1.3521    0.8106 C   0  0  0  0  0  0  0  0  0  0  0  0
   -0.6617    2.6964    0.6733 C   0  0  0  0  0  0  0  0  0  0  0  0
   -1.0954    3.1753   -0.5573 C   0  0  0  0  0  0  0  0  0  0  0  0
   -1.5265    4.8318   -0.7260 Cl  0  0  0  0  0  0  0  0  0  0  0  0
   -1.1792    2.3232   -1.6523 C   0  0  0  0  0  0  0  0  0  0  0  0
   -0.8249    0.9767   -1.5174 C   0  0  0  0  0  0  0  0  0  0  0  0
   -0.9628   -0.0057   -2.9337 Cl  0  0  0  0  0  0  0  0  0  0  0  0
  1  2  1  0
  2  3  1  0
  2  4  1  0
  4  5  1  0
  4  6  1  0
  4  7  1  0
  7  8  1  0
  9  8  1  1
  9 10  1  0
 10 11  1  0
 11 12  1  0
 12 13  2  0
 13 14  1  0
 14 15  2  0
  9 16  1  0
 16 17  2  0
 17 18  1  0
 18 19  2  0
 19 20  1  0
 19 21  1  0
 21 22  2  0
 22 23  1  0
 15 11  1  0
 22 16  1  0
M  END
