
     RDKit          3D

 21 21  0  0  0  0  0  0  0  0999 V2000
    0.4519    1.5236    3.4087 C   0  0  0  0  0  0  0  0  0  0  0  0
    0.5016    2.0342    1.9832 C   0  0  0  0  0  0  0  0  0  0  0  0
   -0.0065    1.0237    1.1275 O   0  0  0  0  0  0  0  0  0  0  0  0
    0.1992    1.1749   -0.4722 P   0  0  1  0  0  5  0  0  0  0  0  0
   -0.5871    2.7668   -1.2591 S   0  0  0  0  0  0  0  0  0  0  0  0
    1.8259    1.0324   -0.7106 N   0  0  0  0  0  0  0  0  0  0  0  0
    2.5048   -0.2639   -0.6689 C   0  0  2  0  0  0  0  0  0  0  0  0
    2.4072   -0.9172    0.7097 C   0  0  0  0  0  0  0  0  0  0  0  0
    3.9745   -0.1025   -1.1109 C   0  0  0  0  0  0  0  0  0  0  0  0
    4.8194    0.8092   -0.2286 C   0  0  0  0  0  0  0  0  0  0  0  0
   -0.4131   -0.2223   -1.0039 O   0  0  0  0  0  0  0  0  0  0  0  0
   -1.7127   -0.6393   -0.9721 C   0  0  0  0  0  0  0  0  0  0  0  0
   -2.6806   -0.0561   -0.1516 C   0  0  0  0  0  0  0  0  0  0  0  0
   -3.9975   -0.5491   -0.1273 C   0  0  0  0  0  0  0  0  0  0  0  0
   -5.0335    0.1181    0.7324 C   0  0  0  0  0  0  0  0  0  0  0  0
   -4.3498   -1.6294   -0.9458 C   0  0  0  0  0  0  0  0  0  0  0  0
   -3.3946   -2.2296   -1.7634 C   0  0  0  0  0  0  0  0  0  0  0  0
   -2.0862   -1.7281   -1.7699 C   0  0  0  0  0  0  0  0  0  0  0  0
   -1.1128   -2.3778   -2.6366 N   0  0  0  0  0  4  0  0  0  0  0  0
   -0.3835   -1.6592   -3.3348 O   0  0  0  0  0  0  0  0  0  0  0  0
   -1.0958   -3.6174   -2.6333 O   0  0  0  0  0  1  0  0  0  0  0  0
  1  2  1  0
  2  3  1  0
  3  4  1  0
  4  5  2  0
  4  6  1  1
  6  7  1  0
  7  8  1  1
  7  9  1  0
  9 10  1  0
  4 11  1  0
 11 12  1  0
 12 13  2  0
 13 14  1  0
 14 15  1  0
 14 16  2  0
 16 17  1  0
 17 18  2  0
 18 19  1  0
 19 20  2  0
 19 21  1  0
 18 12  1  0
M  CHG  2  19   1  21  -1
M  END
