
     RDKit          3D

 20 21  0  0  0  0  0  0  0  0999 V2000
   -1.9100   -1.8841    1.2086 C   0  0  0  0  0  0  0  0  0  0  0  0
   -2.7069   -0.7937    0.5080 C   0  0  0  0  0  0  0  0  0  0  0  0
   -2.1610   -0.4901   -0.8168 N   0  0  0  0  0  0  0  0  0  0  0  0
   -2.6414   -1.3110   -1.9297 C   0  0  0  0  0  0  0  0  0  0  0  0
   -3.8135   -0.6523   -2.6424 C   0  0  0  0  0  0  0  0  0  0  0  0
   -1.1762    0.4656   -1.0879 C   0  0  0  0  0  0  0  0  0  0  0  0
   -0.7486    0.6284   -2.2354 O   0  0  0  0  0  0  0  0  0  0  0  0
   -0.6677    1.3482    0.0743 C   0  0  2  0  0  0  0  0  0  0  0  0
   -1.5683    2.5768    0.1763 C   0  0  0  0  0  0  0  0  0  0  0  0
    0.6654    1.8188   -0.1820 O   0  0  0  0  0  0  0  0  0  0  0  0
    1.5727    1.2403    0.6746 C   0  0  0  0  0  0  0  0  0  0  0  0
    1.6496    1.7241    1.9846 C   0  0  0  0  0  0  0  0  0  0  0  0
    2.5492    1.1554    2.8791 C   0  0  0  0  0  0  0  0  0  0  0  0
    3.3842    0.1176    2.4594 C   0  0  0  0  0  0  0  0  0  0  0  0
    3.3427   -0.3552    1.1364 C   0  0  0  0  0  0  0  0  0  0  0  0
    4.1994   -1.3847    0.7134 C   0  0  0  0  0  0  0  0  0  0  0  0
    4.1721   -1.8449   -0.6039 C   0  0  0  0  0  0  0  0  0  0  0  0
    3.2894   -1.2783   -1.5162 C   0  0  0  0  0  0  0  0  0  0  0  0
    2.4291   -0.2563   -1.1103 C   0  0  0  0  0  0  0  0  0  0  0  0
    2.4322    0.2185    0.2170 C   0  0  0  0  0  0  0  0  0  0  0  0
  1  2  1  0
  2  3  1  0
  3  4  1  0
  4  5  1  0
  3  6  1  0
  6  7  2  0
  6  8  1  0
  8  9  1  6
  8 10  1  0
 10 11  1  0
 11 12  2  0
 12 13  1  0
 13 14  2  0
 14 15  1  0
 15 16  2  0
 16 17  1  0
 17 18  2  0
 18 19  1  0
 19 20  2  0
 20 11  1  0
 20 15  1  0
M  END
