
     RDKit          3D

 20 21  0  0  0  0  0  0  0  0999 V2000
   -2.6107    0.2917    1.3190 C   0  0  0  0  0  0  0  0  0  0  0  0
   -1.7577   -0.6986    0.5060 C   0  0  0  0  0  0  0  0  0  0  0  0
   -0.7685   -1.3776    1.4679 C   0  0  0  0  0  0  0  0  0  0  0  0
   -2.7050   -1.7953   -0.0369 C   0  0  0  0  0  0  0  0  0  0  0  0
   -1.0317   -0.0080   -0.7058 C   0  0  2  0  0  0  0  0  0  0  0  0
   -0.3622   -1.0192   -1.4674 O   0  0  0  0  0  0  0  0  0  0  0  0
   -0.0738    1.1609   -0.3923 C   0  0  0  0  0  0  0  0  0  0  0  0
    1.2712    1.0597   -0.2232 C   0  0  0  0  0  0  0  0  0  0  0  0
    2.1419   -0.1208   -0.2891 C   0  0  0  0  0  0  0  0  0  0  0  0
    2.6270   -0.5758   -1.5217 C   0  0  0  0  0  0  0  0  0  0  0  0
    3.4923   -1.6717   -1.5793 C   0  0  0  0  0  0  0  0  0  0  0  0
    3.8890   -2.3022   -0.4021 C   0  0  0  0  0  0  0  0  0  0  0  0
    4.9567   -3.6493   -0.4716 Cl  0  0  0  0  0  0  0  0  0  0  0  0
    3.4366   -1.8402    0.8317 C   0  0  0  0  0  0  0  0  0  0  0  0
    2.5715   -0.7439    0.8878 C   0  0  0  0  0  0  0  0  0  0  0  0
   -0.7167    2.4357   -0.3570 N   0  0  0  0  0  0  0  0  0  0  0  0
   -0.1587    3.6624   -0.0051 C   0  0  0  0  0  0  0  0  0  0  0  0
   -1.0249    4.6419   -0.1035 N   0  0  0  0  0  0  0  0  0  0  0  0
   -2.1405    4.0014   -0.5215 C   0  0  0  0  0  0  0  0  0  0  0  0
   -2.0187    2.6882   -0.6913 N   0  0  0  0  0  0  0  0  0  0  0  0
  1  2  1  0
  2  3  1  0
  2  4  1  0
  2  5  1  0
  5  6  1  1
  5  7  1  0
  7  8  2  0
  8  9  1  0
  9 10  2  0
 10 11  1  0
 11 12  2  0
 12 13  1  0
 12 14  1  0
 14 15  2  0
  7 16  1  0
 16 17  1  0
 17 18  2  0
 18 19  1  0
 19 20  2  0
 15  9  1  0
 20 16  1  0
M  END
