
     RDKit          3D

 20 21  0  0  0  0  0  0  0  0999 V2000
   -3.9612    2.0302    1.4780 C   0  0  0  0  0  0  0  0  0  0  0  0
   -2.6131    1.4242    1.8345 C   0  0  0  0  0  0  0  0  0  0  0  0
   -2.1311    0.5288    0.7813 N   0  0  0  0  0  0  0  0  0  0  0  0
   -2.4721   -0.8883    0.9148 C   0  0  0  0  0  0  0  0  0  0  0  0
   -1.4331   -1.6444    1.7289 C   0  0  0  0  0  0  0  0  0  0  0  0
   -1.3426    1.0780   -0.2333 C   0  0  0  0  0  0  0  0  0  0  0  0
   -1.0892    2.2869   -0.2553 O   0  0  0  0  0  0  0  0  0  0  0  0
   -0.8241    0.1450   -1.3505 C   0  0  1  0  0  0  0  0  0  0  0  0
   -1.8442    0.1373   -2.4856 C   0  0  0  0  0  0  0  0  0  0  0  0
    0.4163    0.6338   -1.8890 O   0  0  0  0  0  0  0  0  0  0  0  0
    1.4559   -0.2134   -1.5861 C   0  0  0  0  0  0  0  0  0  0  0  0
    1.6260   -1.3543   -2.3755 C   0  0  0  0  0  0  0  0  0  0  0  0
    2.6590   -2.2411   -2.0939 C   0  0  0  0  0  0  0  0  0  0  0  0
    3.5280   -1.9806   -1.0334 C   0  0  0  0  0  0  0  0  0  0  0  0
    3.3884   -0.8215   -0.2505 C   0  0  0  0  0  0  0  0  0  0  0  0
    4.2761   -0.5552    0.8053 C   0  0  0  0  0  0  0  0  0  0  0  0
    4.1482    0.6016    1.5750 C   0  0  0  0  0  0  0  0  0  0  0  0
    3.1351    1.5110    1.2956 C   0  0  0  0  0  0  0  0  0  0  0  0
    2.2447    1.2608    0.2504 C   0  0  0  0  0  0  0  0  0  0  0  0
    2.3449    0.0920   -0.5330 C   0  0  0  0  0  0  0  0  0  0  0  0
  1  2  1  0
  2  3  1  0
  3  4  1  0
  4  5  1  0
  3  6  1  0
  6  7  2  0
  6  8  1  0
  8  9  1  6
  8 10  1  0
 10 11  1  0
 11 12  2  0
 12 13  1  0
 13 14  2  0
 14 15  1  0
 15 16  2  0
 16 17  1  0
 17 18  2  0
 18 19  1  0
 19 20  2  0
 20 11  1  0
 20 15  1  0
M  END
