
     RDKit          3D

 21 22  0  0  0  0  0  0  0  0999 V2000
    3.6444   -1.3319   -1.8296 C   0  0  0  0  0  0  0  0  0  0  0  0
    4.0431    0.0276   -1.2874 C   0  0  0  0  0  0  0  0  0  0  0  0
    2.8761    0.8426   -1.0946 O   0  0  0  0  0  0  0  0  0  0  0  0
    2.2377    0.7060    0.1000 C   0  0  0  0  0  0  0  0  0  0  0  0
    2.5886   -0.0578    0.9922 O   0  0  0  0  0  0  0  0  0  0  0  0
    0.9825    1.5694    0.1739 C   0  0  2  0  0  0  0  0  0  0  0  0
    1.1020    2.8994   -0.5566 C   0  0  0  0  0  0  0  0  0  0  0  0
    0.6470    1.8387    1.5326 O   0  0  0  0  0  0  0  0  0  0  0  0
   -0.4359    1.0873    1.8836 C   0  0  0  0  0  0  0  0  0  0  0  0
   -0.8297    1.0809    3.0390 O   0  0  0  0  0  0  0  0  0  0  0  0
   -0.9504    0.4405    0.7968 N   0  0  0  0  0  0  0  0  0  0  0  0
   -2.1125   -0.3975    0.7887 C   0  0  0  0  0  0  0  0  0  0  0  0
   -2.4561   -1.1635   -0.3398 C   0  0  0  0  0  0  0  0  0  0  0  0
   -3.5895   -1.9862   -0.3471 C   0  0  0  0  0  0  0  0  0  0  0  0
   -3.9631   -2.9083   -1.7526 Cl  0  0  0  0  0  0  0  0  0  0  0  0
   -4.4134   -2.0730    0.7647 C   0  0  0  0  0  0  0  0  0  0  0  0
   -4.0907   -1.3288    1.8895 C   0  0  0  0  0  0  0  0  0  0  0  0
   -5.1013   -1.4177    3.2810 Cl  0  0  0  0  0  0  0  0  0  0  0  0
   -2.9582   -0.5045    1.9069 C   0  0  0  0  0  0  0  0  0  0  0  0
   -0.1987    0.7722   -0.2999 C   0  0  0  0  0  0  0  0  0  0  0  0
   -0.4025    0.5145   -1.4793 O   0  0  0  0  0  0  0  0  0  0  0  0
  1  2  1  0
  2  3  1  0
  3  4  1  0
  4  5  2  0
  4  6  1  0
  6  7  1  6
  6  8  1  0
  8  9  1  0
  9 10  2  0
  9 11  1  0
 11 12  1  0
 12 13  2  0
 13 14  1  0
 14 15  1  0
 14 16  2  0
 16 17  1  0
 17 18  1  0
 17 19  2  0
 11 20  1  0
 20 21  2  0
 20  6  1  0
 19 12  1  0
M  END
