
     RDKit          3D

 24 25  0  0  0  0  0  0  0  0999 V2000
   -5.0123    3.6713    2.3439 C   0  0  0  0  0  0  0  0  0  0  0  0
   -4.6779    2.9730    1.4254 C   0  0  0  0  0  0  0  0  0  0  0  0
   -4.2679    2.1191    0.3031 C   0  0  0  0  0  0  0  0  0  0  0  0
   -3.6578    0.9374    0.8278 O   0  0  0  0  0  0  0  0  0  0  0  0
   -3.2545    0.0588   -0.1357 C   0  0  0  0  0  0  0  0  0  0  0  0
   -3.3959    0.2435   -1.3377 O   0  0  0  0  0  0  0  0  0  0  0  0
   -2.5976   -1.1635    0.5153 C   0  0  1  0  0  0  0  0  0  0  0  0
   -3.6512   -1.9648    1.2724 C   0  0  0  0  0  0  0  0  0  0  0  0
   -2.0277   -2.0495   -0.4581 O   0  0  0  0  0  0  0  0  0  0  0  0
   -0.6993   -1.7859   -0.6503 C   0  0  0  0  0  0  0  0  0  0  0  0
   -0.3115   -1.0230   -1.7506 C   0  0  0  0  0  0  0  0  0  0  0  0
    1.0419   -0.7648   -1.9661 C   0  0  0  0  0  0  0  0  0  0  0  0
    1.9904   -1.2758   -1.0790 C   0  0  0  0  0  0  0  0  0  0  0  0
    3.3197   -1.0513   -1.3362 O   0  0  0  0  0  0  0  0  0  0  0  0
    3.9565   -0.1055   -0.5378 C   0  0  0  0  0  0  0  0  0  0  0  0
    3.2552    0.6054    0.3833 N   0  0  0  0  0  0  0  0  0  0  0  0
    3.9558    1.5153    1.1043 C   0  0  0  0  0  0  0  0  0  0  0  0
    5.3174    1.7454    0.9483 C   0  0  0  0  0  0  0  0  0  0  0  0
    6.1256    2.9172    1.9065 Cl  0  0  0  0  0  0  0  0  0  0  0  0
    6.0141    1.0074   -0.0002 C   0  0  0  0  0  0  0  0  0  0  0  0
    5.3199    0.0699   -0.7545 C   0  0  0  0  0  0  0  0  0  0  0  0
    5.9755   -0.6489   -1.6767 F   0  0  0  0  0  0  0  0  0  0  0  0
    1.6038   -2.0817   -0.0052 C   0  0  0  0  0  0  0  0  0  0  0  0
    0.2498   -2.3380    0.2100 C   0  0  0  0  0  0  0  0  0  0  0  0
  1  2  3  0
  2  3  1  0
  3  4  1  0
  4  5  1  0
  5  6  2  0
  5  7  1  0
  7  8  1  6
  7  9  1  0
  9 10  1  0
 10 11  2  0
 11 12  1  0
 12 13  2  0
 13 14  1  0
 14 15  1  0
 15 16  2  0
 16 17  1  0
 17 18  2  0
 18 19  1  0
 18 20  1  0
 20 21  2  0
 21 22  1  0
 13 23  1  0
 23 24  2  0
 24 10  1  0
 21 15  1  0
M  END
