
     RDKit          3D

 21 22  0  0  0  0  0  0  0  0999 V2000
   -2.2591    1.4333    1.5415 C   0  0  0  0  0  0  0  0  0  0  0  0
   -2.6036    0.7522    0.2080 C   0  0  0  0  0  0  0  0  0  0  0  0
   -2.4799    1.7854   -0.9291 C   0  0  0  0  0  0  0  0  0  0  0  0
   -4.0893    0.3230    0.2822 C   0  0  0  0  0  0  0  0  0  0  0  0
   -1.7158   -0.5076   -0.0819 C   0  0  2  0  0  0  0  0  0  0  0  0
   -1.8834   -1.4844    0.9574 O   0  0  0  0  0  0  0  0  0  0  0  0
   -0.1913   -0.2705   -0.3023 C   0  0  1  0  0  0  0  0  0  0  0  0
    0.6628   -0.3003    0.9873 C   0  0  0  0  0  0  0  0  0  0  0  0
    2.1229    0.0645    0.7714 C   0  0  0  0  0  0  0  0  0  0  0  0
    3.0765   -0.9688    0.7208 C   0  0  0  0  0  0  0  0  0  0  0  0
    4.4269   -0.6879    0.5027 C   0  0  0  0  0  0  0  0  0  0  0  0
    4.8405    0.6295    0.3353 C   0  0  0  0  0  0  0  0  0  0  0  0
    6.5047    0.9749    0.0688 Cl  0  0  0  0  0  0  0  0  0  0  0  0
    3.9178    1.6693    0.3850 C   0  0  0  0  0  0  0  0  0  0  0  0
    2.5658    1.3885    0.6016 C   0  0  0  0  0  0  0  0  0  0  0  0
    1.4801    2.7303    0.6621 Cl  0  0  0  0  0  0  0  0  0  0  0  0
    0.2998   -1.2730   -1.2582 N   0  0  0  0  0  0  0  0  0  0  0  0
    0.3578   -2.6266   -1.1132 C   0  0  0  0  0  0  0  0  0  0  0  0
    0.8559   -3.1649   -2.2020 N   0  0  0  0  0  0  0  0  0  0  0  0
    1.0748   -2.0825   -3.0055 C   0  0  0  0  0  0  0  0  0  0  0  0
    0.7352   -0.9032   -2.4790 N   0  0  0  0  0  0  0  0  0  0  0  0
  1  2  1  0
  2  3  1  0
  2  4  1  0
  2  5  1  0
  5  6  1  1
  5  7  1  0
  7  8  1  1
  8  9  1  0
  9 10  2  0
 10 11  1  0
 11 12  2  0
 12 13  1  0
 12 14  1  0
 14 15  2  0
 15 16  1  0
  7 17  1  0
 17 18  1  0
 18 19  2  0
 19 20  1  0
 20 21  2  0
 15  9  1  0
 21 17  1  0
M  END
