
     RDKit          3D

 26 28  0  0  0  0  0  0  0  0999 V2000
    2.3241   -0.5196   -1.3401 C   0  0  0  0  0  0  0  0  0  0  0  0
    3.6442    0.1576   -1.0413 C   0  0  0  0  0  0  0  0  0  0  0  0
    4.4078    0.5352   -2.2879 C   0  0  0  0  0  0  0  0  0  0  0  0
    4.4595   -0.2321    0.1789 C   0  0  2  0  0  0  0  0  0  0  0  0
    4.0405   -1.3204    1.0752 C   0  0  0  0  0  0  0  0  0  0  0  0
    4.3567   -1.4699    2.3717 C   0  0  0  0  0  0  0  0  0  0  0  0
    3.7925   -2.8445    3.2545 Cl  0  0  0  0  0  0  0  0  0  0  0  0
    5.3527   -0.3366    3.2107 Cl  0  0  0  0  0  0  0  0  0  0  0  0
    3.7460    1.1030    0.1522 C   0  0  2  0  0  0  0  0  0  0  0  0
    2.5345    1.4413    0.9373 C   0  0  0  0  0  0  0  0  0  0  0  0
    2.2677    0.9333    2.0153 O   0  0  0  0  0  0  0  0  0  0  0  0
    1.8023    2.3821    0.2899 O   0  0  0  0  0  0  0  0  0  0  0  0
    0.5703    2.7474    0.9188 C   0  0  0  0  0  0  0  0  0  0  0  0
   -0.5665    2.1059    0.1677 C   0  0  0  0  0  0  0  0  0  0  0  0
   -1.1872    2.7736   -0.8975 C   0  0  0  0  0  0  0  0  0  0  0  0
   -2.2234    2.1652   -1.6078 C   0  0  0  0  0  0  0  0  0  0  0  0
   -2.6475    0.8819   -1.2637 C   0  0  0  0  0  0  0  0  0  0  0  0
   -2.0359    0.2123   -0.2035 C   0  0  0  0  0  0  0  0  0  0  0  0
   -2.3756   -1.0738    0.1504 O   0  0  0  0  0  0  0  0  0  0  0  0
   -3.7156   -1.3370    0.3313 C   0  0  0  0  0  0  0  0  0  0  0  0
   -4.5325   -0.5445    1.1422 C   0  0  0  0  0  0  0  0  0  0  0  0
   -5.8718   -0.8903    1.3220 C   0  0  0  0  0  0  0  0  0  0  0  0
   -6.3879   -2.0289    0.7022 C   0  0  0  0  0  0  0  0  0  0  0  0
   -5.5651   -2.8289   -0.0913 C   0  0  0  0  0  0  0  0  0  0  0  0
   -4.2250   -2.4871   -0.2713 C   0  0  0  0  0  0  0  0  0  0  0  0
   -0.9881    0.8101    0.4969 C   0  0  0  0  0  0  0  0  0  0  0  0
  1  2  1  0
  2  3  1  0
  2  4  1  0
  4  5  1  1
  5  6  2  3
  6  7  1  0
  6  8  1  0
  4  9  1  0
  9 10  1  1
 10 11  2  0
 10 12  1  0
 12 13  1  0
 13 14  1  0
 14 15  2  0
 15 16  1  0
 16 17  2  0
 17 18  1  0
 18 19  1  0
 19 20  1  0
 20 21  2  0
 21 22  1  0
 22 23  2  0
 23 24  1  0
 24 25  2  0
 18 26  2  0
  9  2  1  0
 26 14  1  0
 25 20  1  0
M  END
