
     RDKit          3D

 20 21  0  0  0  0  0  0  0  0999 V2000
   -1.9628    2.8289   -1.3117 C   0  0  0  0  0  0  0  0  0  0  0  0
   -1.9354    1.9442   -0.0826 C   0  0  0  0  0  0  0  0  0  0  0  0
   -0.7448    1.1719   -0.1115 O   0  0  0  0  0  0  0  0  0  0  0  0
   -0.6890   -0.2161    0.7440 P   0  0  2  0  0  5  0  0  0  0  0  0
   -0.9794    0.0297    2.6648 S   0  0  0  0  0  0  0  0  0  0  0  0
    0.7977   -0.7470    0.3604 O   0  0  0  0  0  0  0  0  0  0  0  0
    1.9905   -0.1247    0.5932 C   0  0  0  0  0  0  0  0  0  0  0  0
    2.1330    1.1756    1.0698 C   0  0  0  0  0  0  0  0  0  0  0  0
    3.4105    1.7134    1.2651 C   0  0  0  0  0  0  0  0  0  0  0  0
    4.5490    0.9529    0.9802 C   0  0  0  0  0  0  0  0  0  0  0  0
    5.8559    1.5075    1.1792 C   0  0  0  0  0  0  0  0  0  0  0  0
    6.9146    1.9565    1.3361 N   0  0  0  0  0  0  0  0  0  0  0  0
    4.4039   -0.3499    0.4970 C   0  0  0  0  0  0  0  0  0  0  0  0
    3.1272   -0.8836    0.3038 C   0  0  0  0  0  0  0  0  0  0  0  0
   -1.7276   -1.3267   -0.2126 C   0  0  0  0  0  0  0  0  0  0  0  0
   -2.7134   -2.1195    0.3936 C   0  0  0  0  0  0  0  0  0  0  0  0
   -3.5114   -2.9713   -0.3731 C   0  0  0  0  0  0  0  0  0  0  0  0
   -3.3337   -3.0424   -1.7532 C   0  0  0  0  0  0  0  0  0  0  0  0
   -2.3576   -2.2642   -2.3704 C   0  0  0  0  0  0  0  0  0  0  0  0
   -1.5594   -1.4130   -1.6055 C   0  0  0  0  0  0  0  0  0  0  0  0
  1  2  1  0
  2  3  1  0
  4  3  1  6
  4  5  2  0
  4  6  1  0
  6  7  1  0
  7  8  2  0
  8  9  1  0
  9 10  2  0
 10 11  1  0
 11 12  3  0
 10 13  1  0
 13 14  2  0
  4 15  1  0
 15 16  2  0
 16 17  1  0
 17 18  2  0
 18 19  1  0
 19 20  2  0
 14  7  1  0
 20 15  1  0
M  END
