
     RDKit          3D

 20 21  0  0  0  0  0  0  0  0999 V2000
   -2.7465   -1.8636    0.7114 C   0  0  0  0  0  0  0  0  0  0  0  0
   -1.5502   -1.2969   -0.0888 C   0  0  0  0  0  0  0  0  0  0  0  0
   -1.8513   -1.4981   -1.5872 C   0  0  0  0  0  0  0  0  0  0  0  0
   -0.3082   -2.1193    0.2888 C   0  0  0  0  0  0  0  0  0  0  0  0
   -1.3844    0.2247    0.2451 C   0  0  1  0  0  0  0  0  0  0  0  0
   -1.2807    0.3943    1.6635 O   0  0  0  0  0  0  0  0  0  0  0  0
   -0.2352    0.9665   -0.5110 C   0  0  2  0  0  0  0  0  0  0  0  0
    0.8936    1.5723    0.3540 C   0  0  0  0  0  0  0  0  0  0  0  0
    1.9462    0.5792    0.7880 C   0  0  0  0  0  0  0  0  0  0  0  0
    1.9449    0.0601    2.0895 C   0  0  0  0  0  0  0  0  0  0  0  0
    2.9151   -0.8629    2.4860 C   0  0  0  0  0  0  0  0  0  0  0  0
    3.8949   -1.2680    1.5834 C   0  0  0  0  0  0  0  0  0  0  0  0
    5.0886   -2.4073    2.0699 Cl  0  0  0  0  0  0  0  0  0  0  0  0
    3.9143   -0.7561    0.2881 C   0  0  0  0  0  0  0  0  0  0  0  0
    2.9433    0.1661   -0.1088 C   0  0  0  0  0  0  0  0  0  0  0  0
   -0.8258    2.0435   -1.3178 N   0  0  0  0  0  0  0  0  0  0  0  0
   -0.8615    2.1447   -2.6735 C   0  0  0  0  0  0  0  0  0  0  0  0
   -1.4783    3.2529   -3.0122 N   0  0  0  0  0  0  0  0  0  0  0  0
   -1.8051    3.8061   -1.8070 C   0  0  0  0  0  0  0  0  0  0  0  0
   -1.4286    3.1002   -0.7367 N   0  0  0  0  0  0  0  0  0  0  0  0
  1  2  1  0
  2  3  1  0
  2  4  1  0
  2  5  1  0
  5  6  1  1
  5  7  1  0
  7  8  1  1
  8  9  1  0
  9 10  2  0
 10 11  1  0
 11 12  2  0
 12 13  1  0
 12 14  1  0
 14 15  2  0
  7 16  1  0
 16 17  1  0
 17 18  2  0
 18 19  1  0
 19 20  2  0
 15  9  1  0
 20 16  1  0
M  END
