
     RDKit          3D

 20 21  0  0  0  0  0  0  0  0999 V2000
    2.4979    1.1321   -3.0959 C   0  0  0  0  0  0  0  0  0  0  0  0
    1.8523    2.1787   -2.1977 C   0  0  0  0  0  0  0  0  0  0  0  0
    1.1436    1.5846   -1.0624 N   0  0  0  0  0  0  0  0  0  0  0  0
   -0.3163    1.4731   -1.1607 C   0  0  0  0  0  0  0  0  0  0  0  0
   -0.8130    0.7708   -2.4194 C   0  0  0  0  0  0  0  0  0  0  0  0
    1.9129    1.2782    0.0609 C   0  0  0  0  0  0  0  0  0  0  0  0
    3.1388    1.3837    0.0199 O   0  0  0  0  0  0  0  0  0  0  0  0
    1.2252    0.8077    1.3644 C   0  0  2  0  0  0  0  0  0  0  0  0
    1.9512    1.4411    2.5550 C   0  0  0  0  0  0  0  0  0  0  0  0
    1.3564   -0.6103    1.5220 O   0  0  0  0  0  0  0  0  0  0  0  0
    0.2989   -1.3155    1.0077 C   0  0  0  0  0  0  0  0  0  0  0  0
    0.5629   -2.0294   -0.1612 C   0  0  0  0  0  0  0  0  0  0  0  0
   -0.4442   -2.7613   -0.7785 C   0  0  0  0  0  0  0  0  0  0  0  0
   -1.7256   -2.7717   -0.2195 C   0  0  0  0  0  0  0  0  0  0  0  0
   -2.0012   -2.0841    0.9717 C   0  0  0  0  0  0  0  0  0  0  0  0
   -3.2953   -2.1089    1.5266 C   0  0  0  0  0  0  0  0  0  0  0  0
   -3.5691   -1.4638    2.7272 C   0  0  0  0  0  0  0  0  0  0  0  0
   -2.5500   -0.7981    3.3963 C   0  0  0  0  0  0  0  0  0  0  0  0
   -1.2636   -0.7526    2.8533 C   0  0  0  0  0  0  0  0  0  0  0  0
   -0.9672   -1.3679    1.6235 C   0  0  0  0  0  0  0  0  0  0  0  0
  1  2  1  0
  2  3  1  0
  3  4  1  0
  4  5  1  0
  3  6  1  0
  6  7  2  0
  6  8  1  0
  8  9  1  1
  8 10  1  0
 10 11  1  0
 11 12  2  0
 12 13  1  0
 13 14  2  0
 14 15  1  0
 15 16  2  0
 16 17  1  0
 17 18  2  0
 18 19  1  0
 19 20  2  0
 20 11  1  0
 20 15  1  0
M  END
