
     RDKit          3D

 18 18  0  0  0  0  0  0  0  0999 V2000
    4.3040   -1.8878   -1.6764 C   0  0  0  0  0  0  0  0  0  0  0  0
    4.2367   -1.5556   -0.1918 C   0  0  0  0  0  0  0  0  0  0  0  0
    2.8385   -1.1769    0.2918 C   0  0  0  0  0  0  0  0  0  0  0  0
    2.2705    0.4078   -0.3836 S   0  0  0  0  0  0  0  0  0  0  0  0
    0.3455    0.5759    0.4063 P   0  0  1  0  0  5  0  0  0  0  0  0
    0.3961    0.5748    1.9093 O   0  0  0  0  0  0  0  0  0  0  0  0
   -0.3761    1.8994   -0.1850 O   0  0  0  0  0  0  0  0  0  0  0  0
    0.0427    3.1496    0.3341 C   0  0  0  0  0  0  0  0  0  0  0  0
   -0.7018    4.2490   -0.3948 C   0  0  0  0  0  0  0  0  0  0  0  0
   -0.5652   -0.6089   -0.1974 O   0  0  0  0  0  0  0  0  0  0  0  0
   -1.8846   -0.8370    0.0812 C   0  0  0  0  0  0  0  0  0  0  0  0
   -2.6087   -0.0975    1.0178 C   0  0  0  0  0  0  0  0  0  0  0  0
   -3.9566   -0.3879    1.2506 C   0  0  0  0  0  0  0  0  0  0  0  0
   -4.5790   -1.4180    0.5479 C   0  0  0  0  0  0  0  0  0  0  0  0
   -6.4013   -1.8035    0.8686 Br  0  0  0  0  0  0  0  0  0  0  0  0
   -3.8683   -2.1656   -0.3864 C   0  0  0  0  0  0  0  0  0  0  0  0
   -2.5225   -1.8735   -0.6161 C   0  0  0  0  0  0  0  0  0  0  0  0
   -1.6677   -2.8239   -1.7805 Cl  0  0  0  0  0  0  0  0  0  0  0  0
  1  2  1  0
  2  3  1  0
  3  4  1  0
  4  5  1  0
  5  6  2  0
  5  7  1  6
  7  8  1  0
  8  9  1  0
  5 10  1  0
 10 11  1  0
 11 12  2  0
 12 13  1  0
 13 14  2  0
 14 15  1  0
 14 16  1  0
 16 17  2  0
 17 18  1  0
 17 11  1  0
M  END
