
     RDKit          3D

 26 28  0  0  0  0  0  0  0  0999 V2000
   -6.3591    1.4599    1.1848 C   0  0  0  0  0  0  0  0  0  0  0  0
   -5.1184    0.6311    0.9533 C   0  0  0  0  0  0  0  0  0  0  0  0
   -5.2031   -0.7427    1.5808 C   0  0  0  0  0  0  0  0  0  0  0  0
   -4.3821    0.8381   -0.3614 C   0  0  2  0  0  0  0  0  0  0  0  0
   -3.8385   -0.3228   -1.0861 C   0  0  0  0  0  0  0  0  0  0  0  0
   -4.5004   -1.1373   -1.9224 C   0  0  0  0  0  0  0  0  0  0  0  0
   -3.6803   -2.4491   -2.6924 Cl  0  0  0  0  0  0  0  0  0  0  0  0
   -6.1777   -0.9298   -2.2718 Cl  0  0  0  0  0  0  0  0  0  0  0  0
   -3.7825    1.3631    0.9270 C   0  0  2  0  0  0  0  0  0  0  0  0
   -2.5617    0.8070    1.5535 C   0  0  0  0  0  0  0  0  0  0  0  0
   -2.5538    0.3539    2.6881 O   0  0  0  0  0  0  0  0  0  0  0  0
   -1.4862    0.9287    0.7353 O   0  0  0  0  0  0  0  0  0  0  0  0
   -0.2776    0.4172    1.3057 C   0  0  0  0  0  0  0  0  0  0  0  0
    0.8705    0.5472    0.3304 C   0  0  0  0  0  0  0  0  0  0  0  0
    0.6705    0.5922   -1.0575 C   0  0  0  0  0  0  0  0  0  0  0  0
    1.7556    0.6814   -1.9328 C   0  0  0  0  0  0  0  0  0  0  0  0
    3.0569    0.7077   -1.4345 C   0  0  0  0  0  0  0  0  0  0  0  0
    3.2702    0.6238   -0.0584 C   0  0  0  0  0  0  0  0  0  0  0  0
    4.5261    0.6640    0.5038 O   0  0  0  0  0  0  0  0  0  0  0  0
    5.4910   -0.1524   -0.0419 C   0  0  0  0  0  0  0  0  0  0  0  0
    6.7534    0.4073   -0.2406 C   0  0  0  0  0  0  0  0  0  0  0  0
    7.7862   -0.3731   -0.7607 C   0  0  0  0  0  0  0  0  0  0  0  0
    7.5597   -1.7152   -1.0668 C   0  0  0  0  0  0  0  0  0  0  0  0
    6.3025   -2.2803   -0.8483 C   0  0  0  0  0  0  0  0  0  0  0  0
    5.2675   -1.5021   -0.3280 C   0  0  0  0  0  0  0  0  0  0  0  0
    2.1861    0.5605    0.8199 C   0  0  0  0  0  0  0  0  0  0  0  0
  1  2  1  0
  2  3  1  0
  2  4  1  0
  4  5  1  1
  5  6  2  3
  6  7  1  0
  6  8  1  0
  4  9  1  0
  9 10  1  1
 10 11  2  0
 10 12  1  0
 12 13  1  0
 13 14  1  0
 14 15  2  0
 15 16  1  0
 16 17  2  0
 17 18  1  0
 18 19  1  0
 19 20  1  0
 20 21  2  0
 21 22  1  0
 22 23  2  0
 23 24  1  0
 24 25  2  0
 18 26  2  0
  9  2  1  0
 26 14  1  0
 25 20  1  0
M  END
