
     RDKit          3D

 24 26  0  0  0  0  0  0  0  0999 V2000
   -2.1502    1.6265   -2.3412 N   0  0  0  0  0  0  0  0  0  0  0  0
   -1.8248    0.9351   -1.4668 C   0  0  0  0  0  0  0  0  0  0  0  0
   -1.4071    0.0098   -0.3787 C   0  0  1  0  0  0  0  0  0  0  0  0
    0.1473   -0.1790   -0.4449 C   0  0  0  0  0  0  0  0  0  0  0  0
    0.9920    1.0425   -0.8558 C   0  0  0  0  0  0  0  0  0  0  0  0
    2.4576    0.8113   -0.5685 C   0  0  0  0  0  0  0  0  0  0  0  0
    3.0650    1.4139    0.5426 C   0  0  0  0  0  0  0  0  0  0  0  0
    4.4144    1.1852    0.8207 C   0  0  0  0  0  0  0  0  0  0  0  0
    5.1616    0.3537   -0.0100 C   0  0  0  0  0  0  0  0  0  0  0  0
    6.8231    0.0694    0.3349 Cl  0  0  0  0  0  0  0  0  0  0  0  0
    4.5719   -0.2499   -1.1184 C   0  0  0  0  0  0  0  0  0  0  0  0
    3.2227   -0.0217   -1.3974 C   0  0  0  0  0  0  0  0  0  0  0  0
   -1.8898    0.5434    0.9982 C   0  0  0  0  0  0  0  0  0  0  0  0
   -1.2289    1.7218    1.5037 N   0  0  0  0  0  0  0  0  0  0  0  0
   -0.3289    1.8030    2.5200 C   0  0  0  0  0  0  0  0  0  0  0  0
    0.0307    3.0548    2.6839 N   0  0  0  0  0  0  0  0  0  0  0  0
   -0.7236    3.7159    1.7558 C   0  0  0  0  0  0  0  0  0  0  0  0
   -1.5119    2.9360    1.0111 N   0  0  0  0  0  0  0  0  0  0  0  0
   -2.1245   -1.3692   -0.5303 C   0  0  0  0  0  0  0  0  0  0  0  0
   -1.5513   -2.5565   -0.0306 C   0  0  0  0  0  0  0  0  0  0  0  0
   -2.2170   -3.7816   -0.1314 C   0  0  0  0  0  0  0  0  0  0  0  0
   -3.4751   -3.8484   -0.7196 C   0  0  0  0  0  0  0  0  0  0  0  0
   -4.0728   -2.6894   -1.2016 C   0  0  0  0  0  0  0  0  0  0  0  0
   -3.4105   -1.4626   -1.1024 C   0  0  0  0  0  0  0  0  0  0  0  0
  1  2  3  0
  3  2  1  6
  3  4  1  0
  4  5  1  0
  5  6  1  0
  6  7  2  0
  7  8  1  0
  8  9  2  0
  9 10  1  0
  9 11  1  0
 11 12  2  0
  3 13  1  0
 13 14  1  0
 14 15  1  0
 15 16  2  0
 16 17  1  0
 17 18  2  0
  3 19  1  0
 19 20  2  0
 20 21  1  0
 21 22  2  0
 22 23  1  0
 23 24  2  0
 12  6  1  0
 18 14  1  0
 24 19  1  0
M  END
