
     RDKit          3D

 20 21  0  0  0  0  0  0  0  0999 V2000
   -3.2554   -0.5159   -0.7258 C   0  0  0  0  0  0  0  0  0  0  0  0
   -2.2058   -1.0541    0.2648 C   0  0  0  0  0  0  0  0  0  0  0  0
   -1.5733   -2.3198   -0.3357 C   0  0  0  0  0  0  0  0  0  0  0  0
   -2.9611   -1.5150    1.5402 C   0  0  0  0  0  0  0  0  0  0  0  0
   -1.1352    0.0387    0.6532 C   0  0  2  0  0  0  0  0  0  0  0  0
   -1.7683    0.9182    1.6080 O   0  0  0  0  0  0  0  0  0  0  0  0
   -0.5101    0.9161   -0.4806 C   0  0  2  0  0  0  0  0  0  0  0  0
    0.4800    0.2315   -1.4509 C   0  0  0  0  0  0  0  0  0  0  0  0
    1.8057   -0.2195   -0.8739 C   0  0  0  0  0  0  0  0  0  0  0  0
    2.8739    0.6863   -0.7684 C   0  0  0  0  0  0  0  0  0  0  0  0
    4.1001    0.2897   -0.2291 C   0  0  0  0  0  0  0  0  0  0  0  0
    4.2750   -1.0230    0.1957 C   0  0  0  0  0  0  0  0  0  0  0  0
    5.7832   -1.5174    0.8579 Cl  0  0  0  0  0  0  0  0  0  0  0  0
    3.2356   -1.9414    0.0778 C   0  0  0  0  0  0  0  0  0  0  0  0
    2.0085   -1.5417   -0.4598 C   0  0  0  0  0  0  0  0  0  0  0  0
    0.0738    2.1684    0.0168 N   0  0  0  0  0  0  0  0  0  0  0  0
    0.7611    2.4125    1.1671 C   0  0  0  0  0  0  0  0  0  0  0  0
    1.1455    3.6684    1.1936 N   0  0  0  0  0  0  0  0  0  0  0  0
    0.6474    4.1671    0.0263 C   0  0  0  0  0  0  0  0  0  0  0  0
   -0.0097    3.2887   -0.7352 N   0  0  0  0  0  0  0  0  0  0  0  0
  1  2  1  0
  2  3  1  0
  2  4  1  0
  2  5  1  0
  5  6  1  1
  5  7  1  0
  7  8  1  1
  8  9  1  0
  9 10  2  0
 10 11  1  0
 11 12  2  0
 12 13  1  0
 12 14  1  0
 14 15  2  0
  7 16  1  0
 16 17  1  0
 17 18  2  0
 18 19  1  0
 19 20  2  0
 15  9  1  0
 20 16  1  0
M  END
