
     RDKit          3D

 20 21  0  0  0  0  0  0  0  0999 V2000
   -3.6234   -2.2027   -0.6484 C   0  0  0  0  0  0  0  0  0  0  0  0
   -2.6169   -1.4705    0.2298 C   0  0  0  0  0  0  0  0  0  0  0  0
   -2.6825   -0.0134    0.0681 N   0  0  0  0  0  0  0  0  0  0  0  0
   -3.8255    0.6670    0.6865 C   0  0  0  0  0  0  0  0  0  0  0  0
   -3.5483    1.0442    2.1356 C   0  0  0  0  0  0  0  0  0  0  0  0
   -1.6758    0.7999   -0.4665 C   0  0  0  0  0  0  0  0  0  0  0  0
   -1.8004    2.0307   -0.4716 O   0  0  0  0  0  0  0  0  0  0  0  0
   -0.4022    0.1443   -1.0571 C   0  0  1  0  0  0  0  0  0  0  0  0
   -0.7110   -0.3882   -2.4533 C   0  0  0  0  0  0  0  0  0  0  0  0
    0.6709    1.0910   -1.2186 O   0  0  0  0  0  0  0  0  0  0  0  0
    1.5508    1.0373   -0.1623 C   0  0  0  0  0  0  0  0  0  0  0  0
    1.2033    1.6573    1.0409 C   0  0  0  0  0  0  0  0  0  0  0  0
    2.0798    1.6130    2.1202 C   0  0  0  0  0  0  0  0  0  0  0  0
    3.3095    0.9649    1.9918 C   0  0  0  0  0  0  0  0  0  0  0  0
    3.6896    0.3677    0.7763 C   0  0  0  0  0  0  0  0  0  0  0  0
    4.9392   -0.2605    0.6410 C   0  0  0  0  0  0  0  0  0  0  0  0
    5.3257   -0.8365   -0.5708 C   0  0  0  0  0  0  0  0  0  0  0  0
    4.4683   -0.7914   -1.6639 C   0  0  0  0  0  0  0  0  0  0  0  0
    3.2203   -0.1763   -1.5435 C   0  0  0  0  0  0  0  0  0  0  0  0
    2.8058    0.4091   -0.3285 C   0  0  0  0  0  0  0  0  0  0  0  0
  1  2  1  0
  2  3  1  0
  3  4  1  0
  4  5  1  0
  3  6  1  0
  6  7  2  0
  6  8  1  0
  8  9  1  6
  8 10  1  0
 10 11  1  0
 11 12  2  0
 12 13  1  0
 13 14  2  0
 14 15  1  0
 15 16  2  0
 16 17  1  0
 17 18  2  0
 18 19  1  0
 19 20  2  0
 20 11  1  0
 20 15  1  0
M  END
