
     RDKit          3D

 20 21  0  0  0  0  0  0  0  0999 V2000
    3.5599   -1.3091    0.0567 C   0  0  0  0  0  0  0  0  0  0  0  0
    2.9825   -0.1514   -0.7431 C   0  0  0  0  0  0  0  0  0  0  0  0
    1.4511   -0.1250   -0.7651 C   0  0  0  0  0  0  0  0  0  0  0  0
    0.8346    0.1427    0.6143 C   0  0  0  0  0  0  0  0  0  0  0  0
   -0.7131    0.3056    0.6222 C   0  0  1  0  0  0  0  0  0  0  0  0
   -1.1381    0.5800    1.9728 O   0  0  0  0  0  0  0  0  0  0  0  0
   -1.1682    1.5577   -0.1812 C   0  0  0  0  0  0  0  0  0  0  0  0
   -0.5412    2.7981    0.2326 N   0  0  0  0  0  0  0  0  0  0  0  0
   -0.8381    3.5709    1.3116 C   0  0  0  0  0  0  0  0  0  0  0  0
   -0.0841    4.6463    1.3015 N   0  0  0  0  0  0  0  0  0  0  0  0
    0.6637    4.4854    0.1706 C   0  0  0  0  0  0  0  0  0  0  0  0
    0.4149    3.3722   -0.5249 N   0  0  0  0  0  0  0  0  0  0  0  0
   -1.4132   -1.0036    0.1836 C   0  0  0  0  0  0  0  0  0  0  0  0
   -2.0336   -1.0946   -1.0836 C   0  0  0  0  0  0  0  0  0  0  0  0
   -2.6622   -2.2676   -1.5186 C   0  0  0  0  0  0  0  0  0  0  0  0
   -2.6842   -3.3869   -0.7002 C   0  0  0  0  0  0  0  0  0  0  0  0
   -3.4550   -4.8269   -1.2358 Cl  0  0  0  0  0  0  0  0  0  0  0  0
   -2.0800   -3.3453    0.5478 C   0  0  0  0  0  0  0  0  0  0  0  0
   -1.4492   -2.1717    0.9856 C   0  0  0  0  0  0  0  0  0  0  0  0
   -0.7292   -2.2656    2.5602 Cl  0  0  0  0  0  0  0  0  0  0  0  0
  1  2  1  0
  2  3  1  0
  3  4  1  0
  4  5  1  0
  5  6  1  1
  5  7  1  0
  7  8  1  0
  8  9  1  0
  9 10  2  0
 10 11  1  0
 11 12  2  0
  5 13  1  0
 13 14  2  0
 14 15  1  0
 15 16  2  0
 16 17  1  0
 16 18  1  0
 18 19  2  0
 19 20  1  0
 12  8  1  0
 19 13  1  0
M  END
