
     RDKit          3D

 21 22  0  0  0  0  0  0  0  0999 V2000
   -2.9090    0.1922   -0.5537 C   0  0  0  0  0  0  0  0  0  0  0  0
   -1.9014   -0.8506   -0.0457 C   0  0  0  0  0  0  0  0  0  0  0  0
   -2.6982   -1.8914    0.7868 C   0  0  0  0  0  0  0  0  0  0  0  0
   -1.3386   -1.6053   -1.2605 C   0  0  0  0  0  0  0  0  0  0  0  0
   -0.8121   -0.2228    0.8941 C   0  0  1  0  0  0  0  0  0  0  0  0
    0.0584   -1.2531    1.3965 O   0  0  0  0  0  0  0  0  0  0  0  0
    0.0490    1.0209    0.5104 C   0  0  1  0  0  0  0  0  0  0  0  0
    0.9742    0.9386   -0.7288 C   0  0  0  0  0  0  0  0  0  0  0  0
    2.1590   -0.0062   -0.6290 C   0  0  0  0  0  0  0  0  0  0  0  0
    2.1938   -1.1463   -1.4512 C   0  0  0  0  0  0  0  0  0  0  0  0
    3.2563   -2.0507   -1.3840 C   0  0  0  0  0  0  0  0  0  0  0  0
    4.3098   -1.8168   -0.5070 C   0  0  0  0  0  0  0  0  0  0  0  0
    5.6173   -2.9311   -0.4266 Cl  0  0  0  0  0  0  0  0  0  0  0  0
    4.3193   -0.6788    0.2914 C   0  0  0  0  0  0  0  0  0  0  0  0
    3.2565    0.2274    0.2232 C   0  0  0  0  0  0  0  0  0  0  0  0
    3.3839    1.6561    1.1884 Cl  0  0  0  0  0  0  0  0  0  0  0  0
   -0.7299    2.2578    0.5274 N   0  0  0  0  0  0  0  0  0  0  0  0
   -1.1171    2.9691    1.6243 C   0  0  0  0  0  0  0  0  0  0  0  0
   -1.7666    4.0446    1.2450 N   0  0  0  0  0  0  0  0  0  0  0  0
   -1.7276    3.9624   -0.1163 C   0  0  0  0  0  0  0  0  0  0  0  0
   -1.0982    2.8899   -0.6039 N   0  0  0  0  0  0  0  0  0  0  0  0
  1  2  1  0
  2  3  1  0
  2  4  1  0
  2  5  1  0
  5  6  1  6
  5  7  1  0
  7  8  1  6
  8  9  1  0
  9 10  2  0
 10 11  1  0
 11 12  2  0
 12 13  1  0
 12 14  1  0
 14 15  2  0
 15 16  1  0
  7 17  1  0
 17 18  1  0
 18 19  2  0
 19 20  1  0
 20 21  2  0
 15  9  1  0
 21 17  1  0
M  END
