
     RDKit          3D

 21 21  0  0  0  0  0  0  0  0999 V2000
    1.1064   -3.2556   -1.5447 C   0  0  0  0  0  0  0  0  0  0  0  0
    0.7704   -2.8991   -0.1111 C   0  0  0  0  0  0  0  0  0  0  0  0
    0.2593   -1.5754   -0.0851 O   0  0  0  0  0  0  0  0  0  0  0  0
    0.2223   -0.7778    1.3246 P   0  0  1  0  0  5  0  0  0  0  0  0
   -0.6602   -1.7032    2.7881 S   0  0  0  0  0  0  0  0  0  0  0  0
    1.7771   -0.3332    1.6205 N   0  0  0  0  0  0  0  0  0  0  0  0
    2.7357    0.0161    0.5740 C   0  0  2  0  0  0  0  0  0  0  0  0
    4.1263    0.0079    1.2159 C   0  0  0  0  0  0  0  0  0  0  0  0
    2.4024    1.3683   -0.0750 C   0  0  0  0  0  0  0  0  0  0  0  0
    3.3931    1.7937   -1.1510 C   0  0  0  0  0  0  0  0  0  0  0  0
   -0.5010    0.6054    0.9020 O   0  0  0  0  0  0  0  0  0  0  0  0
   -1.7672    0.7809    0.4176 C   0  0  0  0  0  0  0  0  0  0  0  0
   -2.5687   -0.2715   -0.0309 C   0  0  0  0  0  0  0  0  0  0  0  0
   -3.8711   -0.0366   -0.5087 C   0  0  0  0  0  0  0  0  0  0  0  0
   -4.7291   -1.1893   -0.9477 C   0  0  0  0  0  0  0  0  0  0  0  0
   -4.3844    1.2661   -0.5149 C   0  0  0  0  0  0  0  0  0  0  0  0
   -3.5980    2.3296   -0.0788 C   0  0  0  0  0  0  0  0  0  0  0  0
   -2.2959    2.0769    0.3728 C   0  0  0  0  0  0  0  0  0  0  0  0
   -1.5050    3.2119    0.8180 N   0  0  0  0  0  4  0  0  0  0  0  0
   -0.3760    3.3567    0.3296 O   0  0  0  0  0  0  0  0  0  0  0  0
   -2.0326    3.9793    1.6356 O   0  0  0  0  0  1  0  0  0  0  0  0
  1  2  1  0
  2  3  1  0
  3  4  1  0
  4  5  2  0
  4  6  1  1
  6  7  1  0
  7  8  1  1
  7  9  1  0
  9 10  1  0
  4 11  1  0
 11 12  1  0
 12 13  2  0
 13 14  1  0
 14 15  1  0
 14 16  2  0
 16 17  1  0
 17 18  2  0
 18 19  1  0
 19 20  2  0
 19 21  1  0
 18 12  1  0
M  CHG  2  19   1  21  -1
M  END
