
     RDKit          3D

 21 21  0  0  0  0  0  0  0  0999 V2000
   -4.7642    3.6790    2.3463 C   0  0  0  0  0  0  0  0  0  0  0  0
   -4.3112    2.3107    1.8696 C   0  0  0  0  0  0  0  0  0  0  0  0
   -3.1956    2.4109    0.8382 C   0  0  0  0  0  0  0  0  0  0  0  0
   -2.8282    1.0958    0.4498 O   0  0  0  0  0  0  0  0  0  0  0  0
   -1.9229    0.8924   -0.8847 P   0  0  0  0  0  5  0  0  0  0  0  0
   -2.8767    1.2939   -2.5371 S   0  0  0  0  0  0  0  0  0  0  0  0
   -1.5935   -0.6963   -0.7437 O   0  0  0  0  0  0  0  0  0  0  0  0
   -2.6562   -1.6104   -0.5184 C   0  0  0  0  0  0  0  0  0  0  0  0
   -2.1258   -3.0192   -0.7479 C   0  0  0  0  0  0  0  0  0  0  0  0
   -3.1933   -4.0712   -0.5080 C   0  0  0  0  0  0  0  0  0  0  0  0
   -0.0774    1.8283   -0.5365 S   0  0  0  0  0  0  0  0  0  0  0  0
    0.9240    1.2207   -1.9221 C   0  0  0  0  0  0  0  0  0  0  0  0
    2.4006    1.2014   -1.5509 C   0  0  0  0  0  0  0  0  0  0  0  0
    3.1719    1.9755   -2.1222 O   0  0  0  0  0  0  0  0  0  0  0  0
    2.8274    0.2837   -0.5631 N   0  0  0  0  0  0  0  0  0  0  0  0
    2.2166   -1.0510   -0.5977 C   0  0  0  0  0  0  0  0  0  0  0  0
    2.5890   -1.9569    0.5639 C   0  0  0  0  0  0  0  0  0  0  0  0
    4.0956   -2.0305    0.7136 C   0  0  0  0  0  0  0  0  0  0  0  0
    4.6251   -0.6311    0.9634 C   0  0  0  0  0  0  0  0  0  0  0  0
    4.2538    0.3631   -0.1567 C   0  0  2  0  0  0  0  0  0  0  0  0
    4.6495    1.7595    0.3613 C   0  0  0  0  0  0  0  0  0  0  0  0
  1  2  1  0
  2  3  1  0
  3  4  1  0
  4  5  1  0
  5  6  2  0
  5  7  1  0
  7  8  1  0
  8  9  1  0
  9 10  1  0
  5 11  1  0
 11 12  1  0
 12 13  1  0
 13 14  2  0
 13 15  1  0
 15 16  1  0
 16 17  1  0
 17 18  1  0
 18 19  1  0
 19 20  1  0
 20 21  1  1
 20 15  1  0
M  END
