
     RDKit          3D

 26 28  0  0  0  0  0  0  0  0999 V2000
   -4.6566   -0.8640    0.3672 C   0  0  0  0  0  0  0  0  0  0  0  0
   -3.3685   -0.2758   -0.1553 C   0  0  0  0  0  0  0  0  0  0  0  0
   -2.3118   -1.3188   -0.4396 C   0  0  0  0  0  0  0  0  0  0  0  0
   -3.3693    0.9601   -1.0412 C   0  0  1  0  0  0  0  0  0  0  0  0
   -4.6386    1.5542   -1.4912 C   0  0  0  0  0  0  0  0  0  0  0  0
   -4.9561    2.8553   -1.5710 C   0  0  0  0  0  0  0  0  0  0  0  0
   -3.8589    4.1040   -1.1098 Cl  0  0  0  0  0  0  0  0  0  0  0  0
   -6.5120    3.3353   -2.1497 Cl  0  0  0  0  0  0  0  0  0  0  0  0
   -2.9552    1.0760    0.4125 C   0  0  2  0  0  0  0  0  0  0  0  0
   -1.5418    1.3470    0.7663 C   0  0  0  0  0  0  0  0  0  0  0  0
   -0.7840    1.9499    0.0224 O   0  0  0  0  0  0  0  0  0  0  0  0
   -1.2419    0.8201    1.9791 O   0  0  0  0  0  0  0  0  0  0  0  0
    0.1374    0.8965    2.3524 C   0  0  0  0  0  0  0  0  0  0  0  0
    0.8319   -0.3745    1.9362 C   0  0  0  0  0  0  0  0  0  0  0  0
    0.6652   -1.5527    2.6781 C   0  0  0  0  0  0  0  0  0  0  0  0
    1.2688   -2.7422    2.2659 C   0  0  0  0  0  0  0  0  0  0  0  0
    2.0447   -2.7651    1.1078 C   0  0  0  0  0  0  0  0  0  0  0  0
    2.2266   -1.5956    0.3696 C   0  0  0  0  0  0  0  0  0  0  0  0
    2.9704   -1.6958   -0.7851 O   0  0  0  0  0  0  0  0  0  0  0  0
    3.8973   -0.7049   -1.0139 C   0  0  0  0  0  0  0  0  0  0  0  0
    4.8703   -0.3650   -0.0707 C   0  0  0  0  0  0  0  0  0  0  0  0
    5.8059    0.6268   -0.3691 C   0  0  0  0  0  0  0  0  0  0  0  0
    5.7758    1.2646   -1.6099 C   0  0  0  0  0  0  0  0  0  0  0  0
    4.8149    0.9078   -2.5583 C   0  0  0  0  0  0  0  0  0  0  0  0
    3.8804   -0.0856   -2.2637 C   0  0  0  0  0  0  0  0  0  0  0  0
    1.6064   -0.4086    0.7678 C   0  0  0  0  0  0  0  0  0  0  0  0
  1  2  1  0
  2  3  1  0
  2  4  1  0
  4  5  1  1
  5  6  2  3
  6  7  1  0
  6  8  1  0
  4  9  1  0
  9 10  1  6
 10 11  2  0
 10 12  1  0
 12 13  1  0
 13 14  1  0
 14 15  2  0
 15 16  1  0
 16 17  2  0
 17 18  1  0
 18 19  1  0
 19 20  1  0
 20 21  2  0
 21 22  1  0
 22 23  2  0
 23 24  1  0
 24 25  2  0
 18 26  2  0
  9  2  1  0
 26 14  1  0
 25 20  1  0
M  END
