
     RDKit          3D

 25 27  0  0  0  0  0  0  0  0999 V2000
   -5.1658    0.2494    1.1196 C   0  0  0  0  0  0  0  0  0  0  0  0
   -4.0145    0.1256    0.0924 C   0  0  0  0  0  0  0  0  0  0  0  0
   -4.6101   -0.4803   -1.1907 C   0  0  0  0  0  0  0  0  0  0  0  0
   -3.5047    1.5450   -0.2202 C   0  0  0  0  0  0  0  0  0  0  0  0
   -2.8814   -0.7525    0.7199 C   0  0  1  0  0  0  0  0  0  0  0  0
   -3.4100   -2.0458    1.0669 O   0  0  0  0  0  0  0  0  0  0  0  0
   -1.5286   -0.8485   -0.0521 C   0  0  1  0  0  0  0  0  0  0  0  0
   -0.5588   -1.4836    0.8157 O   0  0  0  0  0  0  0  0  0  0  0  0
    0.6500   -0.8481    0.7764 C   0  0  0  0  0  0  0  0  0  0  0  0
    1.6870   -1.4305    0.0568 C   0  0  0  0  0  0  0  0  0  0  0  0
    2.9327   -0.8001    0.0112 C   0  0  0  0  0  0  0  0  0  0  0  0
    3.1621    0.4056    0.6983 C   0  0  0  0  0  0  0  0  0  0  0  0
    4.4773    1.0666    0.6497 C   0  0  0  0  0  0  0  0  0  0  0  0
    4.5964    2.4188    0.2856 C   0  0  0  0  0  0  0  0  0  0  0  0
    5.8451    3.0453    0.2365 C   0  0  0  0  0  0  0  0  0  0  0  0
    6.9973    2.3295    0.5510 C   0  0  0  0  0  0  0  0  0  0  0  0
    6.9021    0.9887    0.9141 C   0  0  0  0  0  0  0  0  0  0  0  0
    5.6529    0.3636    0.9622 C   0  0  0  0  0  0  0  0  0  0  0  0
    2.1031    0.9539    1.4436 C   0  0  0  0  0  0  0  0  0  0  0  0
    0.8545    0.3281    1.4914 C   0  0  0  0  0  0  0  0  0  0  0  0
   -1.5849   -1.6261   -1.2806 N   0  0  0  0  0  0  0  0  0  0  0  0
   -1.0109   -1.3144   -2.4759 C   0  0  0  0  0  0  0  0  0  0  0  0
   -1.2651   -2.2628   -3.3473 N   0  0  0  0  0  0  0  0  0  0  0  0
   -1.9953   -3.1612   -2.6234 C   0  0  0  0  0  0  0  0  0  0  0  0
   -2.2255   -2.8172   -1.3526 N   0  0  0  0  0  0  0  0  0  0  0  0
  1  2  1  0
  2  3  1  0
  2  4  1  0
  2  5  1  0
  5  6  1  6
  5  7  1  0
  7  8  1  1
  8  9  1  0
  9 10  2  0
 10 11  1  0
 11 12  2  0
 12 13  1  0
 13 14  2  0
 14 15  1  0
 15 16  2  0
 16 17  1  0
 17 18  2  0
 12 19  1  0
 19 20  2  0
  7 21  1  0
 21 22  1  0
 22 23  2  0
 23 24  1  0
 24 25  2  0
 20  9  1  0
 25 21  1  0
 18 13  1  0
M  END
