
     RDKit          3D

 18 19  0  0  0  0  0  0  0  0999 V2000
   -3.7367    0.9284    1.2514 C   0  0  0  0  0  0  0  0  0  0  0  0
   -3.1648   -0.1234    0.6467 C   0  0  0  0  0  0  0  0  0  0  0  0
   -2.1453   -0.0786   -0.4677 C   0  0  1  0  0  0  0  0  0  0  0  0
   -2.6552   -0.7499   -1.7376 C   0  0  0  0  0  0  0  0  0  0  0  0
   -1.7713    1.2579   -0.7713 O   0  0  0  0  0  0  0  0  0  0  0  0
   -0.4317    1.4084   -0.5598 C   0  0  0  0  0  0  0  0  0  0  0  0
    0.1066    2.4776   -0.8045 O   0  0  0  0  0  0  0  0  0  0  0  0
    0.1333    0.2516   -0.0997 N   0  0  0  0  0  0  0  0  0  0  0  0
    1.5159    0.0700    0.2344 C   0  0  0  0  0  0  0  0  0  0  0  0
    2.4096    1.1541    0.3017 C   0  0  0  0  0  0  0  0  0  0  0  0
    3.7591    0.9706    0.6299 C   0  0  0  0  0  0  0  0  0  0  0  0
    4.8104    2.3325    0.7054 Cl  0  0  0  0  0  0  0  0  0  0  0  0
    4.2612   -0.2932    0.8998 C   0  0  0  0  0  0  0  0  0  0  0  0
    3.3978   -1.3762    0.8397 C   0  0  0  0  0  0  0  0  0  0  0  0
    3.9986   -2.9569    1.1654 Cl  0  0  0  0  0  0  0  0  0  0  0  0
    2.0466   -1.2022    0.5139 C   0  0  0  0  0  0  0  0  0  0  0  0
   -0.8421   -0.7089   -0.0154 C   0  0  0  0  0  0  0  0  0  0  0  0
   -0.7535   -1.8736    0.3544 O   0  0  0  0  0  0  0  0  0  0  0  0
  1  2  2  0
  2  3  1  0
  3  4  1  6
  3  5  1  0
  5  6  1  0
  6  7  2  0
  6  8  1  0
  8  9  1  0
  9 10  2  0
 10 11  1  0
 11 12  1  0
 11 13  2  0
 13 14  1  0
 14 15  1  0
 14 16  2  0
  8 17  1  0
 17 18  2  0
 17  3  1  0
 16  9  1  0
M  END
