
     RDKit          3D

 20 21  0  0  0  0  0  0  0  0999 V2000
   -1.3161   -3.7483   -2.4252 C   0  0  0  0  0  0  0  0  0  0  0  0
   -0.5230   -3.3954   -1.1834 C   0  0  0  0  0  0  0  0  0  0  0  0
   -1.1784   -2.3251   -0.5215 O   0  0  0  0  0  0  0  0  0  0  0  0
   -0.3361   -1.3968    0.5242 P   0  0  1  0  0  5  0  0  0  0  0  0
    0.4838   -2.4481    1.9591 S   0  0  0  0  0  0  0  0  0  0  0  0
    0.7280   -0.7363   -0.5108 O   0  0  0  0  0  0  0  0  0  0  0  0
    1.6132    0.2698   -0.2462 C   0  0  0  0  0  0  0  0  0  0  0  0
    1.7521    0.9079    0.9835 C   0  0  0  0  0  0  0  0  0  0  0  0
    2.6902    1.9360    1.1347 C   0  0  0  0  0  0  0  0  0  0  0  0
    3.4908    2.3282    0.0572 C   0  0  0  0  0  0  0  0  0  0  0  0
    4.4490    3.3828    0.2157 C   0  0  0  0  0  0  0  0  0  0  0  0
    5.2230    4.2384    0.3413 N   0  0  0  0  0  0  0  0  0  0  0  0
    3.3496    1.6855   -1.1752 C   0  0  0  0  0  0  0  0  0  0  0  0
    2.4127    0.6598   -1.3232 C   0  0  0  0  0  0  0  0  0  0  0  0
   -1.5140   -0.0875    0.8654 C   0  0  0  0  0  0  0  0  0  0  0  0
   -2.0178    0.6969   -0.1859 C   0  0  0  0  0  0  0  0  0  0  0  0
   -2.9272    1.7258    0.0621 C   0  0  0  0  0  0  0  0  0  0  0  0
   -3.3495    1.9818    1.3643 C   0  0  0  0  0  0  0  0  0  0  0  0
   -2.8666    1.2082    2.4175 C   0  0  0  0  0  0  0  0  0  0  0  0
   -1.9563    0.1787    2.1704 C   0  0  0  0  0  0  0  0  0  0  0  0
  1  2  1  0
  2  3  1  0
  4  3  1  6
  4  5  2  0
  4  6  1  0
  6  7  1  0
  7  8  2  0
  8  9  1  0
  9 10  2  0
 10 11  1  0
 11 12  3  0
 10 13  1  0
 13 14  2  0
  4 15  1  0
 15 16  2  0
 16 17  1  0
 17 18  2  0
 18 19  1  0
 19 20  2  0
 14  7  1  0
 20 15  1  0
M  END
