
     RDKit          3D

 20 20  0  0  0  0  0  0  0  0999 V2000
    5.3056   -1.9802    1.4138 C   0  0  0  0  0  0  0  0  0  0  0  0
    4.5809   -2.1558    0.0883 C   0  0  0  0  0  0  0  0  0  0  0  0
    4.7364   -0.9615   -0.8559 C   0  0  0  0  0  0  0  0  0  0  0  0
    4.2240    0.3830   -0.3242 C   0  0  0  0  0  0  0  0  0  0  0  0
    2.7468    0.4131    0.1210 C   0  0  1  0  0  0  0  0  0  0  0  0
    2.3894    1.7721    0.7708 C   0  0  0  0  0  0  0  0  0  0  0  0
    2.3964    2.9687   -0.1714 C   0  0  0  0  0  0  0  0  0  0  0  0
    1.7913    0.0319   -1.0223 C   0  0  0  0  0  0  0  0  0  0  0  0
    0.4380    0.1099   -0.5517 O   0  0  0  0  0  0  0  0  0  0  0  0
   -0.4965   -0.2391   -1.4699 C   0  0  0  0  0  0  0  0  0  0  0  0
   -0.2729   -0.6070   -2.6117 O   0  0  0  0  0  0  0  0  0  0  0  0
   -1.8629   -0.1152   -0.8954 C   0  0  0  0  0  0  0  0  0  0  0  0
   -2.9576   -0.3690   -1.7231 C   0  0  0  0  0  0  0  0  0  0  0  0
   -4.2633   -0.2703   -1.2206 C   0  0  0  0  0  0  0  0  0  0  0  0
   -4.5294    0.0697    0.1189 C   0  0  0  0  0  0  0  0  0  0  0  0
   -5.8437    0.1736    0.5952 N   0  0  0  0  0  0  0  0  0  0  0  0
   -6.0699    0.5487    1.9896 C   0  0  0  0  0  0  0  0  0  0  0  0
   -6.8281   -0.7583    0.0370 C   0  0  0  0  0  0  0  0  0  0  0  0
   -3.4069    0.3387    0.9228 C   0  0  0  0  0  0  0  0  0  0  0  0
   -2.0945    0.2443    0.4334 C   0  0  0  0  0  0  0  0  0  0  0  0
  1  2  1  0
  2  3  1  0
  3  4  1  0
  5  4  1  6
  5  6  1  0
  6  7  1  0
  5  8  1  0
  8  9  1  0
  9 10  1  0
 10 11  2  0
 10 12  1  0
 12 13  2  0
 13 14  1  0
 14 15  2  0
 15 16  1  0
 16 17  1  0
 16 18  1  0
 15 19  1  0
 19 20  2  0
 20 12  1  0
M  END
