
     RDKit          3D

 26 28  0  0  0  0  0  0  0  0999 V2000
   -3.5309    1.8414    3.3284 C   0  0  0  0  0  0  0  0  0  0  0  0
   -2.6101    1.6762    2.1439 C   0  0  0  0  0  0  0  0  0  0  0  0
   -2.1540    0.2490    1.9403 C   0  0  0  0  0  0  0  0  0  0  0  0
   -2.7713    2.5267    0.8933 C   0  0  1  0  0  0  0  0  0  0  0  0
   -3.8774    3.4896    0.7680 C   0  0  0  0  0  0  0  0  0  0  0  0
   -3.8534    4.6873    0.1627 C   0  0  0  0  0  0  0  0  0  0  0  0
   -5.2782    5.6646    0.1085 Cl  0  0  0  0  0  0  0  0  0  0  0  0
   -2.4302    5.3133   -0.5849 Cl  0  0  0  0  0  0  0  0  0  0  0  0
   -1.6430    2.8193    1.8629 C   0  0  2  0  0  0  0  0  0  0  0  0
   -0.2295    2.5464    1.5101 C   0  0  0  0  0  0  0  0  0  0  0  0
    0.5665    2.1349    2.3401 O   0  0  0  0  0  0  0  0  0  0  0  0
    0.0271    2.8234    0.2090 O   0  0  0  0  0  0  0  0  0  0  0  0
    1.3518    2.5245   -0.2388 C   0  0  0  0  0  0  0  0  0  0  0  0
    1.3249    1.2263   -1.0017 C   0  0  0  0  0  0  0  0  0  0  0  0
    1.1174    1.2155   -2.3880 C   0  0  0  0  0  0  0  0  0  0  0  0
    1.0558    0.0080   -3.0864 C   0  0  0  0  0  0  0  0  0  0  0  0
    1.1960   -1.2007   -2.4068 C   0  0  0  0  0  0  0  0  0  0  0  0
    1.4115   -1.1996   -1.0274 C   0  0  0  0  0  0  0  0  0  0  0  0
    1.5103   -2.3563   -0.2863 O   0  0  0  0  0  0  0  0  0  0  0  0
    2.3146   -3.3525   -0.7902 C   0  0  0  0  0  0  0  0  0  0  0  0
    3.6524   -3.1280   -1.1243 C   0  0  0  0  0  0  0  0  0  0  0  0
    4.4328   -4.1834   -1.5982 C   0  0  0  0  0  0  0  0  0  0  0  0
    3.8798   -5.4584   -1.7257 C   0  0  0  0  0  0  0  0  0  0  0  0
    2.5489   -5.6836   -1.3692 C   0  0  0  0  0  0  0  0  0  0  0  0
    1.7674   -4.6315   -0.8915 C   0  0  0  0  0  0  0  0  0  0  0  0
    1.4576    0.0054   -0.3249 C   0  0  0  0  0  0  0  0  0  0  0  0
  1  2  1  0
  2  3  1  0
  2  4  1  0
  4  5  1  1
  5  6  2  3
  6  7  1  0
  6  8  1  0
  4  9  1  0
  9 10  1  6
 10 11  2  0
 10 12  1  0
 12 13  1  0
 13 14  1  0
 14 15  2  0
 15 16  1  0
 16 17  2  0
 17 18  1  0
 18 19  1  0
 19 20  1  0
 20 21  2  0
 21 22  1  0
 22 23  2  0
 23 24  1  0
 24 25  2  0
 18 26  2  0
  9  2  1  0
 26 14  1  0
 25 20  1  0
M  END
