
     RDKit          3D

 21 22  0  0  0  0  0  0  0  0999 V2000
   -4.1004   -0.6593    0.1716 C   0  0  0  0  0  0  0  0  0  0  0  0
   -2.5809   -0.8418   -0.0894 C   0  0  0  0  0  0  0  0  0  0  0  0
   -2.1729   -2.2022    0.5046 C   0  0  0  0  0  0  0  0  0  0  0  0
   -2.4129   -0.8723   -1.6225 C   0  0  0  0  0  0  0  0  0  0  0  0
   -1.8001    0.3564    0.5600 C   0  0  1  0  0  0  0  0  0  0  0  0
   -2.3203    0.5726    1.8940 O   0  0  0  0  0  0  0  0  0  0  0  0
   -0.2479    0.3055    0.7007 C   0  0  1  0  0  0  0  0  0  0  0  0
    0.5572   -0.1687   -0.5271 C   0  0  0  0  0  0  0  0  0  0  0  0
    2.0629   -0.2261   -0.3090 C   0  0  0  0  0  0  0  0  0  0  0  0
    2.5702   -1.1379    0.6375 C   0  0  0  0  0  0  0  0  0  0  0  0
    3.9407   -1.2206    0.8909 C   0  0  0  0  0  0  0  0  0  0  0  0
    4.8227   -0.3993    0.1964 C   0  0  0  0  0  0  0  0  0  0  0  0
    6.5110   -0.5046    0.5088 Cl  0  0  0  0  0  0  0  0  0  0  0  0
    4.3488    0.4971   -0.7554 C   0  0  0  0  0  0  0  0  0  0  0  0
    2.9767    0.5808   -1.0126 C   0  0  0  0  0  0  0  0  0  0  0  0
    2.4801    1.6919   -2.2385 Cl  0  0  0  0  0  0  0  0  0  0  0  0
    0.2243    1.6335    1.1212 N   0  0  0  0  0  0  0  0  0  0  0  0
    0.7647    1.9832    2.3206 C   0  0  0  0  0  0  0  0  0  0  0  0
    1.1172    3.2476    2.2924 N   0  0  0  0  0  0  0  0  0  0  0  0
    0.7506    3.6385    1.0360 C   0  0  0  0  0  0  0  0  0  0  0  0
    0.2008    2.6854    0.2793 N   0  0  0  0  0  0  0  0  0  0  0  0
  1  2  1  0
  2  3  1  0
  2  4  1  0
  2  5  1  0
  5  6  1  1
  5  7  1  0
  7  8  1  6
  8  9  1  0
  9 10  2  0
 10 11  1  0
 11 12  2  0
 12 13  1  0
 12 14  1  0
 14 15  2  0
 15 16  1  0
  7 17  1  0
 17 18  1  0
 18 19  2  0
 19 20  1  0
 20 21  2  0
 15  9  1  0
 21 17  1  0
M  END
