
     RDKit          3D

 26 28  0  0  0  0  0  0  0  0999 V2000
    5.0711    1.7670   -1.2497 C   0  0  0  0  0  0  0  0  0  0  0  0
    4.8275    0.4806   -0.4957 C   0  0  0  0  0  0  0  0  0  0  0  0
    5.9625   -0.5069   -0.6262 C   0  0  0  0  0  0  0  0  0  0  0  0
    4.0111    0.5771    0.7847 C   0  0  2  0  0  0  0  0  0  0  0  0
    4.3486   -0.2394    1.9619 C   0  0  0  0  0  0  0  0  0  0  0  0
    3.5014   -0.8286    2.8202 C   0  0  0  0  0  0  0  0  0  0  0  0
    1.7881   -0.7155    2.6491 Cl  0  0  0  0  0  0  0  0  0  0  0  0
    4.1114   -1.7342    4.1599 Cl  0  0  0  0  0  0  0  0  0  0  0  0
    3.4207   -0.0974   -0.4381 C   0  0  1  0  0  0  0  0  0  0  0  0
    2.3054    0.5166   -1.1974 C   0  0  0  0  0  0  0  0  0  0  0  0
    2.2158    0.3945   -2.4096 O   0  0  0  0  0  0  0  0  0  0  0  0
    1.4385    1.1654   -0.3820 O   0  0  0  0  0  0  0  0  0  0  0  0
    0.2726    1.6938   -1.0191 C   0  0  0  0  0  0  0  0  0  0  0  0
   -0.8556    0.7046   -0.8922 C   0  0  0  0  0  0  0  0  0  0  0  0
   -1.2146   -0.1106   -1.9747 C   0  0  0  0  0  0  0  0  0  0  0  0
   -2.2394   -1.0503   -1.8456 C   0  0  0  0  0  0  0  0  0  0  0  0
   -2.9156   -1.1856   -0.6335 C   0  0  0  0  0  0  0  0  0  0  0  0
   -2.5707   -0.3709    0.4466 C   0  0  0  0  0  0  0  0  0  0  0  0
   -3.1674   -0.4823    1.6822 O   0  0  0  0  0  0  0  0  0  0  0  0
   -4.5426   -0.5302    1.7174 C   0  0  0  0  0  0  0  0  0  0  0  0
   -5.3479    0.3732    1.0190 C   0  0  0  0  0  0  0  0  0  0  0  0
   -6.7369    0.2915    1.1291 C   0  0  0  0  0  0  0  0  0  0  0  0
   -7.3172   -0.6788    1.9467 C   0  0  0  0  0  0  0  0  0  0  0  0
   -6.5103   -1.5648    2.6613 C   0  0  0  0  0  0  0  0  0  0  0  0
   -5.1216   -1.4859    2.5527 C   0  0  0  0  0  0  0  0  0  0  0  0
   -1.5316    0.5531    0.3270 C   0  0  0  0  0  0  0  0  0  0  0  0
  1  2  1  0
  2  3  1  0
  2  4  1  0
  4  5  1  1
  5  6  2  3
  6  7  1  0
  6  8  1  0
  4  9  1  0
  9 10  1  6
 10 11  2  0
 10 12  1  0
 12 13  1  0
 13 14  1  0
 14 15  2  0
 15 16  1  0
 16 17  2  0
 17 18  1  0
 18 19  1  0
 19 20  1  0
 20 21  2  0
 21 22  1  0
 22 23  2  0
 23 24  1  0
 24 25  2  0
 18 26  2  0
  9  2  1  0
 26 14  1  0
 25 20  1  0
M  END
