
     RDKit          3D

 25 27  0  0  0  0  0  0  0  0999 V2000
   -3.3361   -1.8160   -0.9688 C   0  0  0  0  0  0  0  0  0  0  0  0
   -3.6019   -1.2507    0.4393 C   0  0  0  0  0  0  0  0  0  0  0  0
   -2.7112   -1.9968    1.4496 C   0  0  0  0  0  0  0  0  0  0  0  0
   -5.0733   -1.5641    0.7998 C   0  0  0  0  0  0  0  0  0  0  0  0
   -3.3848    0.3017    0.4699 C   0  0  1  0  0  0  0  0  0  0  0  0
   -3.6329    0.7926    1.8012 O   0  0  0  0  0  0  0  0  0  0  0  0
   -1.9961    0.8055   -0.0264 C   0  0  2  0  0  0  0  0  0  0  0  0
   -0.9595    0.4346    0.8935 O   0  0  0  0  0  0  0  0  0  0  0  0
    0.3188    0.2998    0.4299 C   0  0  0  0  0  0  0  0  0  0  0  0
    1.1960   -0.3086    1.3291 C   0  0  0  0  0  0  0  0  0  0  0  0
    2.5383   -0.5112    0.9936 C   0  0  0  0  0  0  0  0  0  0  0  0
    3.0393   -0.1010   -0.2497 C   0  0  0  0  0  0  0  0  0  0  0  0
    4.4519   -0.3088   -0.6073 C   0  0  0  0  0  0  0  0  0  0  0  0
    5.0405   -1.5819   -0.5238 C   0  0  0  0  0  0  0  0  0  0  0  0
    6.3815   -1.7802   -0.8639 C   0  0  0  0  0  0  0  0  0  0  0  0
    7.1581   -0.7068   -1.2927 C   0  0  0  0  0  0  0  0  0  0  0  0
    6.5951    0.5636   -1.3818 C   0  0  0  0  0  0  0  0  0  0  0  0
    5.2537    0.7599   -1.0424 C   0  0  0  0  0  0  0  0  0  0  0  0
    2.1492    0.5204   -1.1397 C   0  0  0  0  0  0  0  0  0  0  0  0
    0.8029    0.7220   -0.8057 C   0  0  0  0  0  0  0  0  0  0  0  0
   -2.0227    2.2602   -0.1727 N   0  0  0  0  0  0  0  0  0  0  0  0
   -1.8589    3.2091    0.7894 C   0  0  0  0  0  0  0  0  0  0  0  0
   -1.9612    4.4034    0.2517 N   0  0  0  0  0  0  0  0  0  0  0  0
   -2.1910    4.1291   -1.0653 C   0  0  0  0  0  0  0  0  0  0  0  0
   -2.2441    2.8316   -1.3803 N   0  0  0  0  0  0  0  0  0  0  0  0
  1  2  1  0
  2  3  1  0
  2  4  1  0
  2  5  1  0
  5  6  1  1
  5  7  1  0
  7  8  1  1
  8  9  1  0
  9 10  2  0
 10 11  1  0
 11 12  2  0
 12 13  1  0
 13 14  2  0
 14 15  1  0
 15 16  2  0
 16 17  1  0
 17 18  2  0
 12 19  1  0
 19 20  2  0
  7 21  1  0
 21 22  1  0
 22 23  2  0
 23 24  1  0
 24 25  2  0
 20  9  1  0
 25 21  1  0
 18 13  1  0
M  END
