
     RDKit          3D

 24 26  0  0  0  0  0  0  0  0999 V2000
   -0.6467    1.2301   -3.5997 N   0  0  0  0  0  0  0  0  0  0  0  0
   -0.7589    0.8981   -2.4930 C   0  0  0  0  0  0  0  0  0  0  0  0
   -0.9071    0.5200   -1.0570 C   0  0  1  0  0  0  0  0  0  0  0  0
    0.4690   -0.0675   -0.5994 C   0  0  0  0  0  0  0  0  0  0  0  0
    1.6845    0.8615   -0.7745 C   0  0  0  0  0  0  0  0  0  0  0  0
    2.9410    0.2161   -0.2400 C   0  0  0  0  0  0  0  0  0  0  0  0
    3.2537    0.3069    1.1241 C   0  0  0  0  0  0  0  0  0  0  0  0
    4.4035   -0.3043    1.6276 C   0  0  0  0  0  0  0  0  0  0  0  0
    5.2435   -1.0104    0.7695 C   0  0  0  0  0  0  0  0  0  0  0  0
    6.6617   -1.7628    1.3892 Cl  0  0  0  0  0  0  0  0  0  0  0  0
    4.9425   -1.1124   -0.5870 C   0  0  0  0  0  0  0  0  0  0  0  0
    3.7918   -0.5022   -1.0912 C   0  0  0  0  0  0  0  0  0  0  0  0
   -1.2839    1.8164   -0.2895 C   0  0  0  0  0  0  0  0  0  0  0  0
   -1.3776    1.6643    1.1461 N   0  0  0  0  0  0  0  0  0  0  0  0
   -2.4816    1.3968    1.8931 C   0  0  0  0  0  0  0  0  0  0  0  0
   -2.1566    1.3914    3.1652 N   0  0  0  0  0  0  0  0  0  0  0  0
   -0.8224    1.6774    3.1443 C   0  0  0  0  0  0  0  0  0  0  0  0
   -0.2984    1.8527    1.9275 N   0  0  0  0  0  0  0  0  0  0  0  0
   -2.0740   -0.4936   -0.9150 C   0  0  0  0  0  0  0  0  0  0  0  0
   -3.2958   -0.2690   -1.5881 C   0  0  0  0  0  0  0  0  0  0  0  0
   -4.3768   -1.1429   -1.4467 C   0  0  0  0  0  0  0  0  0  0  0  0
   -4.2683   -2.2574   -0.6239 C   0  0  0  0  0  0  0  0  0  0  0  0
   -3.0790   -2.4989    0.0549 C   0  0  0  0  0  0  0  0  0  0  0  0
   -1.9942   -1.6276   -0.0865 C   0  0  0  0  0  0  0  0  0  0  0  0
  1  2  3  0
  3  2  1  6
  3  4  1  0
  4  5  1  0
  5  6  1  0
  6  7  2  0
  7  8  1  0
  8  9  2  0
  9 10  1  0
  9 11  1  0
 11 12  2  0
  3 13  1  0
 13 14  1  0
 14 15  1  0
 15 16  2  0
 16 17  1  0
 17 18  2  0
  3 19  1  0
 19 20  2  0
 20 21  1  0
 21 22  2  0
 22 23  1  0
 23 24  2  0
 12  6  1  0
 18 14  1  0
 24 19  1  0
M  END
