
     RDKit          3D

 27 29  0  0  0  0  0  0  0  0999 V2000
   -3.5363   -0.6297    1.6332 C   0  0  0  0  0  0  0  0  0  0  0  0
   -2.5297   -1.0939    0.5578 C   0  0  1  0  0  0  0  0  0  0  0  0
   -2.5547   -2.5294    0.6596 O   0  0  0  0  0  0  0  0  0  0  0  0
   -2.9903   -0.6934   -0.8682 C   0  0  0  0  0  0  0  0  0  0  0  0
   -3.4122    0.6794   -1.0242 N   0  0  0  0  0  0  0  0  0  0  0  0
   -4.6847    1.1482   -1.1385 C   0  0  0  0  0  0  0  0  0  0  0  0
   -4.6598    2.4524   -1.2845 N   0  0  0  0  0  0  0  0  0  0  0  0
   -3.3241    2.7357   -1.2820 C   0  0  0  0  0  0  0  0  0  0  0  0
   -2.5210    1.6802   -1.1271 N   0  0  0  0  0  0  0  0  0  0  0  0
   -1.0774   -0.6667    0.8348 C   0  0  0  0  0  0  0  0  0  0  0  0
   -0.8335    0.5540    1.5069 C   0  0  0  0  0  0  0  0  0  0  0  0
    0.4586    0.9975    1.7953 C   0  0  0  0  0  0  0  0  0  0  0  0
    1.5496    0.2422    1.3999 C   0  0  0  0  0  0  0  0  0  0  0  0
    2.8001    0.7053    1.7321 O   0  0  0  0  0  0  0  0  0  0  0  0
    3.7277    0.7898    0.7178 C   0  0  0  0  0  0  0  0  0  0  0  0
    5.0273    0.3783    1.0195 C   0  0  0  0  0  0  0  0  0  0  0  0
    6.0281    0.4639    0.0497 C   0  0  0  0  0  0  0  0  0  0  0  0
    5.7262    0.9751   -1.2123 C   0  0  0  0  0  0  0  0  0  0  0  0
    6.9595    1.0819   -2.4072 Cl  0  0  0  0  0  0  0  0  0  0  0  0
    4.4342    1.4075   -1.5107 C   0  0  0  0  0  0  0  0  0  0  0  0
    3.4324    1.3225   -0.5410 C   0  0  0  0  0  0  0  0  0  0  0  0
    1.3529   -0.9708    0.7442 C   0  0  0  0  0  0  0  0  0  0  0  0
    0.0535   -1.4342    0.4279 C   0  0  0  0  0  0  0  0  0  0  0  0
   -0.0266   -2.7572   -0.3202 C   0  0  0  0  0  0  0  0  0  0  0  0
   -0.9565   -2.7822   -1.3176 F   0  0  0  0  0  0  0  0  0  0  0  0
   -0.2728   -3.8267    0.4854 F   0  0  0  0  0  0  0  0  0  0  0  0
    1.1485   -3.0639   -0.9547 F   0  0  0  0  0  0  0  0  0  0  0  0
  2  1  1  1
  2  3  1  0
  2  4  1  0
  4  5  1  0
  5  6  1  0
  6  7  2  0
  7  8  1  0
  8  9  2  0
  2 10  1  0
 10 11  2  0
 11 12  1  0
 12 13  2  0
 13 14  1  0
 14 15  1  0
 15 16  2  0
 16 17  1  0
 17 18  2  0
 18 19  1  0
 18 20  1  0
 20 21  2  0
 13 22  1  0
 22 23  2  0
 23 24  1  0
 24 25  1  0
 24 26  1  0
 24 27  1  0
  9  5  1  0
 23 10  1  0
 21 15  1  0
M  END
