
     RDKit          3D

 21 22  0  0  0  0  0  0  0  0999 V2000
    4.9357    1.5460   -0.4612 C   0  0  0  0  0  0  0  0  0  0  0  0
    3.9596    0.9384    0.5270 C   0  0  0  0  0  0  0  0  0  0  0  0
    3.0001    0.1683   -0.2095 O   0  0  0  0  0  0  0  0  0  0  0  0
    2.0550   -0.4432    0.5558 C   0  0  0  0  0  0  0  0  0  0  0  0
    1.9908   -0.3543    1.7769 O   0  0  0  0  0  0  0  0  0  0  0  0
    1.0413   -1.2057   -0.2908 C   0  0  1  0  0  0  0  0  0  0  0  0
    1.6235   -1.8120   -1.5600 C   0  0  0  0  0  0  0  0  0  0  0  0
    0.4536   -2.2561    0.4726 O   0  0  0  0  0  0  0  0  0  0  0  0
   -0.8223   -1.9077    0.8056 C   0  0  0  0  0  0  0  0  0  0  0  0
   -1.4778   -2.6190    1.5504 O   0  0  0  0  0  0  0  0  0  0  0  0
   -1.1870   -0.7482    0.1837 N   0  0  0  0  0  0  0  0  0  0  0  0
   -2.4694   -0.1150    0.2693 C   0  0  0  0  0  0  0  0  0  0  0  0
   -2.6905    1.1687   -0.2613 C   0  0  0  0  0  0  0  0  0  0  0  0
   -3.9428    1.7898   -0.1745 C   0  0  0  0  0  0  0  0  0  0  0  0
   -4.1595    3.3650   -0.8356 Cl  0  0  0  0  0  0  0  0  0  0  0  0
   -5.0108    1.1557    0.4416 C   0  0  0  0  0  0  0  0  0  0  0  0
   -4.8136   -0.1092    0.9747 C   0  0  0  0  0  0  0  0  0  0  0  0
   -6.1265   -0.9180    1.7413 Cl  0  0  0  0  0  0  0  0  0  0  0  0
   -3.5643   -0.7377    0.8943 C   0  0  0  0  0  0  0  0  0  0  0  0
   -0.1346   -0.3184   -0.5817 C   0  0  0  0  0  0  0  0  0  0  0  0
   -0.0947    0.6014   -1.3889 O   0  0  0  0  0  0  0  0  0  0  0  0
  1  2  1  0
  2  3  1  0
  3  4  1  0
  4  5  2  0
  4  6  1  0
  6  7  1  6
  6  8  1  0
  8  9  1  0
  9 10  2  0
  9 11  1  0
 11 12  1  0
 12 13  2  0
 13 14  1  0
 14 15  1  0
 14 16  2  0
 16 17  1  0
 17 18  1  0
 17 19  2  0
 11 20  1  0
 20 21  2  0
 20  6  1  0
 19 12  1  0
M  END
