
     RDKit          3D

 26 28  0  0  0  0  0  0  0  0999 V2000
   -5.7567   -1.3920   -1.5053 C   0  0  0  0  0  0  0  0  0  0  0  0
   -4.4625   -1.3995   -0.7268 C   0  0  0  0  0  0  0  0  0  0  0  0
   -4.0076   -2.7896   -0.3474 C   0  0  0  0  0  0  0  0  0  0  0  0
   -4.1166   -0.2765    0.2394 C   0  0  2  0  0  0  0  0  0  0  0  0
   -5.0701    0.8129    0.5042 C   0  0  0  0  0  0  0  0  0  0  0  0
   -4.7938    2.1076    0.7245 C   0  0  0  0  0  0  0  0  0  0  0  0
   -3.1812    2.7203    0.7172 Cl  0  0  0  0  0  0  0  0  0  0  0  0
   -6.0715    3.2284    1.0374 Cl  0  0  0  0  0  0  0  0  0  0  0  0
   -3.4281   -0.3498   -1.1096 C   0  0  1  0  0  0  0  0  0  0  0  0
   -1.9912   -0.6952   -1.2186 C   0  0  0  0  0  0  0  0  0  0  0  0
   -1.5695   -1.4305   -2.0981 O   0  0  0  0  0  0  0  0  0  0  0  0
   -1.2528   -0.0833   -0.2615 O   0  0  0  0  0  0  0  0  0  0  0  0
    0.1452   -0.3741   -0.3395 C   0  0  0  0  0  0  0  0  0  0  0  0
    0.8912    0.3896    0.7298 C   0  0  0  0  0  0  0  0  0  0  0  0
    0.3188    0.6459    1.9855 C   0  0  0  0  0  0  0  0  0  0  0  0
    1.0319    1.3370    2.9675 C   0  0  0  0  0  0  0  0  0  0  0  0
    2.3342    1.7627    2.7142 C   0  0  0  0  0  0  0  0  0  0  0  0
    2.9286    1.4802    1.4860 C   0  0  0  0  0  0  0  0  0  0  0  0
    4.2079    1.9497    1.2889 O   0  0  0  0  0  0  0  0  0  0  0  0
    5.1160    1.0854    0.7208 C   0  0  0  0  0  0  0  0  0  0  0  0
    5.9139    1.5888   -0.3069 C   0  0  0  0  0  0  0  0  0  0  0  0
    6.8753    0.7726   -0.9035 C   0  0  0  0  0  0  0  0  0  0  0  0
    7.0477   -0.5395   -0.4609 C   0  0  0  0  0  0  0  0  0  0  0  0
    6.2651   -1.0347    0.5830 C   0  0  0  0  0  0  0  0  0  0  0  0
    5.3027   -0.2204    1.1815 C   0  0  0  0  0  0  0  0  0  0  0  0
    2.2087    0.8105    0.4911 C   0  0  0  0  0  0  0  0  0  0  0  0
  1  2  1  0
  2  3  1  0
  2  4  1  0
  4  5  1  6
  5  6  2  3
  6  7  1  0
  6  8  1  0
  4  9  1  0
  9 10  1  1
 10 11  2  0
 10 12  1  0
 12 13  1  0
 13 14  1  0
 14 15  2  0
 15 16  1  0
 16 17  2  0
 17 18  1  0
 18 19  1  0
 19 20  1  0
 20 21  2  0
 21 22  1  0
 22 23  2  0
 23 24  1  0
 24 25  2  0
 18 26  2  0
  9  2  1  0
 26 14  1  0
 25 20  1  0
M  END
