
     RDKit          3D

 20 21  0  0  0  0  0  0  0  0999 V2000
   -2.7025   -0.8468    1.4232 C   0  0  0  0  0  0  0  0  0  0  0  0
   -2.6538   -0.1289    0.0573 C   0  0  0  0  0  0  0  0  0  0  0  0
   -2.4456   -1.1854   -1.0406 C   0  0  0  0  0  0  0  0  0  0  0  0
   -4.0327    0.5330   -0.1678 C   0  0  0  0  0  0  0  0  0  0  0  0
   -1.5381    0.9744    0.0643 C   0  0  2  0  0  0  0  0  0  0  0  0
   -1.6226    1.8309   -1.0852 O   0  0  0  0  0  0  0  0  0  0  0  0
   -0.0733    0.4704    0.2248 C   0  0  1  0  0  0  0  0  0  0  0  0
    0.6739    0.2837   -1.1150 C   0  0  0  0  0  0  0  0  0  0  0  0
    1.9458   -0.5267   -0.9841 C   0  0  0  0  0  0  0  0  0  0  0  0
    1.8980   -1.9284   -0.9960 C   0  0  0  0  0  0  0  0  0  0  0  0
    3.0689   -2.6773   -0.8585 C   0  0  0  0  0  0  0  0  0  0  0  0
    4.2922   -2.0292   -0.7052 C   0  0  0  0  0  0  0  0  0  0  0  0
    5.7337   -2.9532   -0.5361 Cl  0  0  0  0  0  0  0  0  0  0  0  0
    4.3547   -0.6383   -0.6882 C   0  0  0  0  0  0  0  0  0  0  0  0
    3.1845    0.1115   -0.8271 C   0  0  0  0  0  0  0  0  0  0  0  0
    0.6581    1.3914    1.0993 N   0  0  0  0  0  0  0  0  0  0  0  0
    0.9576    2.7035    0.8880 C   0  0  0  0  0  0  0  0  0  0  0  0
    1.6298    3.1713    1.9142 N   0  0  0  0  0  0  0  0  0  0  0  0
    1.6926    2.0965    2.7543 C   0  0  0  0  0  0  0  0  0  0  0  0
    1.0968    0.9879    2.3080 N   0  0  0  0  0  0  0  0  0  0  0  0
  1  2  1  0
  2  3  1  0
  2  4  1  0
  2  5  1  0
  5  6  1  6
  5  7  1  0
  7  8  1  6
  8  9  1  0
  9 10  2  0
 10 11  1  0
 11 12  2  0
 12 13  1  0
 12 14  1  0
 14 15  2  0
  7 16  1  0
 16 17  1  0
 17 18  2  0
 18 19  1  0
 19 20  2  0
 15  9  1  0
 20 16  1  0
M  END
