
     RDKit          3D

 26 28  0  0  0  0  0  0  0  0999 V2000
   -4.8625    1.1443   -0.1701 C   0  0  0  0  0  0  0  0  0  0  0  0
   -4.1614   -0.1825    0.0041 C   0  0  0  0  0  0  0  0  0  0  0  0
   -4.5065   -0.8689    1.3041 C   0  0  0  0  0  0  0  0  0  0  0  0
   -3.8978   -0.9860   -1.2581 C   0  0  2  0  0  0  0  0  0  0  0  0
   -4.0414   -2.4510   -1.2607 C   0  0  0  0  0  0  0  0  0  0  0  0
   -5.1756   -3.1559   -1.3934 C   0  0  0  0  0  0  0  0  0  0  0  0
   -6.7138   -2.3952   -1.5817 Cl  0  0  0  0  0  0  0  0  0  0  0  0
   -5.1346   -4.8839   -1.3744 Cl  0  0  0  0  0  0  0  0  0  0  0  0
   -2.7387   -0.3588   -0.5085 C   0  0  1  0  0  0  0  0  0  0  0  0
   -1.9911    0.7795   -1.0936 C   0  0  0  0  0  0  0  0  0  0  0  0
   -1.9936    1.0203   -2.2912 O   0  0  0  0  0  0  0  0  0  0  0  0
   -1.3376    1.4705   -0.1272 O   0  0  0  0  0  0  0  0  0  0  0  0
   -0.5406    2.5651   -0.5906 C   0  0  0  0  0  0  0  0  0  0  0  0
    0.8774    2.1014   -0.7980 C   0  0  0  0  0  0  0  0  0  0  0  0
    1.3452    1.7927   -2.0832 C   0  0  0  0  0  0  0  0  0  0  0  0
    2.6559    1.3513   -2.2746 C   0  0  0  0  0  0  0  0  0  0  0  0
    3.5091    1.1998   -1.1814 C   0  0  0  0  0  0  0  0  0  0  0  0
    3.0403    1.4712    0.1054 C   0  0  0  0  0  0  0  0  0  0  0  0
    3.8375    1.3689    1.2230 O   0  0  0  0  0  0  0  0  0  0  0  0
    4.5721    0.2138    1.3679 C   0  0  0  0  0  0  0  0  0  0  0  0
    4.0096   -1.0579    1.2322 C   0  0  0  0  0  0  0  0  0  0  0  0
    4.8008   -2.1897    1.4338 C   0  0  0  0  0  0  0  0  0  0  0  0
    6.1448   -2.0493    1.7831 C   0  0  0  0  0  0  0  0  0  0  0  0
    6.6984   -0.7777    1.9377 C   0  0  0  0  0  0  0  0  0  0  0  0
    5.9095    0.3550    1.7383 C   0  0  0  0  0  0  0  0  0  0  0  0
    1.7375    1.9346    0.2970 C   0  0  0  0  0  0  0  0  0  0  0  0
  1  2  1  0
  2  3  1  0
  2  4  1  0
  4  5  1  1
  5  6  2  3
  6  7  1  0
  6  8  1  0
  4  9  1  0
  9 10  1  6
 10 11  2  0
 10 12  1  0
 12 13  1  0
 13 14  1  0
 14 15  2  0
 15 16  1  0
 16 17  2  0
 17 18  1  0
 18 19  1  0
 19 20  1  0
 20 21  2  0
 21 22  1  0
 22 23  2  0
 23 24  1  0
 24 25  2  0
 18 26  2  0
  9  2  1  0
 26 14  1  0
 25 20  1  0
M  END
