
     RDKit          3D

 26 27  0  0  0  0  0  0  0  0999 V2000
    5.7430    2.8356   -1.2529 C   0  0  0  0  0  0  0  0  0  0  0  0
    5.5132    1.6434   -0.3382 C   0  0  0  0  0  0  0  0  0  0  0  0
    4.3793    0.7590   -0.8484 C   0  0  0  0  0  0  0  0  0  0  0  0
    4.1373   -0.4336    0.0700 C   0  0  0  0  0  0  0  0  0  0  0  0
    3.0700   -1.2096   -0.4875 O   0  0  0  0  0  0  0  0  0  0  0  0
    2.6816   -2.2695    0.2746 C   0  0  0  0  0  0  0  0  0  0  0  0
    3.2020   -2.5996    1.3344 O   0  0  0  0  0  0  0  0  0  0  0  0
    1.5202   -3.0288   -0.3718 C   0  0  2  0  0  0  0  0  0  0  0  0
    2.0972   -3.9772   -1.4187 C   0  0  0  0  0  0  0  0  0  0  0  0
    0.5589   -2.2082   -1.0294 O   0  0  0  0  0  0  0  0  0  0  0  0
   -0.2610   -1.4256   -0.2652 C   0  0  0  0  0  0  0  0  0  0  0  0
   -1.0834   -0.5655   -0.9994 C   0  0  0  0  0  0  0  0  0  0  0  0
   -1.9748    0.2962   -0.3559 C   0  0  0  0  0  0  0  0  0  0  0  0
   -2.0576    0.2867    1.0360 C   0  0  0  0  0  0  0  0  0  0  0  0
   -2.8817    1.1303    1.7458 O   0  0  0  0  0  0  0  0  0  0  0  0
   -4.1739    1.2592    1.2963 C   0  0  0  0  0  0  0  0  0  0  0  0
   -4.6392    2.5504    1.0442 C   0  0  0  0  0  0  0  0  0  0  0  0
   -5.9560    2.7426    0.6159 C   0  0  0  0  0  0  0  0  0  0  0  0
   -6.8128    1.6448    0.4560 C   0  0  0  0  0  0  0  0  0  0  0  0
   -8.1624    1.8451    0.0163 C   0  0  0  0  0  0  0  0  0  0  0  0
   -9.2538    2.0098   -0.3414 N   0  0  0  0  0  0  0  0  0  0  0  0
   -6.3506    0.3549    0.7327 C   0  0  0  0  0  0  0  0  0  0  0  0
   -5.0381    0.1710    1.1590 C   0  0  0  0  0  0  0  0  0  0  0  0
   -4.6273   -1.0714    1.4494 F   0  0  0  0  0  0  0  0  0  0  0  0
   -1.2287   -0.5549    1.7764 C   0  0  0  0  0  0  0  0  0  0  0  0
   -0.3376   -1.4174    1.1283 C   0  0  0  0  0  0  0  0  0  0  0  0
  1  2  1  0
  2  3  1  0
  3  4  1  0
  4  5  1  0
  5  6  1  0
  6  7  2  0
  6  8  1  0
  8  9  1  6
  8 10  1  0
 10 11  1  0
 11 12  2  0
 12 13  1  0
 13 14  2  0
 14 15  1  0
 15 16  1  0
 16 17  2  0
 17 18  1  0
 18 19  2  0
 19 20  1  0
 20 21  3  0
 19 22  1  0
 22 23  2  0
 23 24  1  0
 14 25  1  0
 25 26  2  0
 26 11  1  0
 23 16  1  0
M  END
