
     RDKit          3D

 21 22  0  0  0  0  0  0  0  0999 V2000
   -1.9048    4.1979   -1.8697 C   0  0  0  0  0  0  0  0  0  0  0  0
   -1.1657    3.2983   -0.9000 C   0  0  0  0  0  0  0  0  0  0  0  0
   -1.5368    1.9525   -1.1511 O   0  0  0  0  0  0  0  0  0  0  0  0
   -0.3861    0.7975   -1.2101 P   0  0  1  0  0  5  0  0  0  0  0  0
    0.8092    1.0344   -2.7433 S   0  0  0  0  0  0  0  0  0  0  0  0
    0.3186    1.0507    0.2329 O   0  0  0  0  0  0  0  0  0  0  0  0
    1.2941    0.2925    0.8147 C   0  0  0  0  0  0  0  0  0  0  0  0
    1.7739    0.7754    2.0362 C   0  0  0  0  0  0  0  0  0  0  0  0
    2.7703    0.0858    2.7314 C   0  0  0  0  0  0  0  0  0  0  0  0
    3.2849   -1.0992    2.1942 C   0  0  0  0  0  0  0  0  0  0  0  0
    4.3322   -1.8328    2.9160 N   0  0  0  0  0  4  0  0  0  0  0  0
    4.8230   -1.2970    3.9204 O   0  0  0  0  0  0  0  0  0  0  0  0
    4.6614   -2.9449    2.4791 O   0  0  0  0  0  1  0  0  0  0  0  0
    2.8055   -1.5904    0.9728 C   0  0  0  0  0  0  0  0  0  0  0  0
    1.8089   -0.8895    0.2837 C   0  0  0  0  0  0  0  0  0  0  0  0
   -1.3639   -0.6900   -0.9943 C   0  0  0  0  0  0  0  0  0  0  0  0
   -2.1401   -0.8610    0.1641 C   0  0  0  0  0  0  0  0  0  0  0  0
   -2.9094   -2.0108    0.3466 C   0  0  0  0  0  0  0  0  0  0  0  0
   -2.9159   -3.0041   -0.6292 C   0  0  0  0  0  0  0  0  0  0  0  0
   -2.1559   -2.8492   -1.7866 C   0  0  0  0  0  0  0  0  0  0  0  0
   -1.3865   -1.6988   -1.9697 C   0  0  0  0  0  0  0  0  0  0  0  0
  1  2  1  0
  2  3  1  0
  4  3  1  6
  4  5  2  0
  4  6  1  0
  6  7  1  0
  7  8  2  0
  8  9  1  0
  9 10  2  0
 10 11  1  0
 11 12  2  0
 11 13  1  0
 10 14  1  0
 14 15  2  0
  4 16  1  0
 16 17  2  0
 17 18  1  0
 18 19  2  0
 19 20  1  0
 20 21  2  0
 15  7  1  0
 21 16  1  0
M  CHG  2  11   1  13  -1
M  END
