
     RDKit          3D

 20 21  0  0  0  0  0  0  0  0999 V2000
    4.4741   -1.6264   -0.5769 C   0  0  0  0  0  0  0  0  0  0  0  0
    3.3184   -0.6568   -0.3745 C   0  0  0  0  0  0  0  0  0  0  0  0
    2.0221   -1.2053   -0.9677 C   0  0  0  0  0  0  0  0  0  0  0  0
    0.8485   -0.2083   -1.0381 C   0  0  0  0  0  0  0  0  0  0  0  0
    0.2914    0.3881    0.2958 C   0  0  2  0  0  0  0  0  0  0  0  0
    1.3892    1.1407    0.8443 O   0  0  0  0  0  0  0  0  0  0  0  0
   -0.0753   -0.7224    1.3130 C   0  0  0  0  0  0  0  0  0  0  0  0
   -1.2499   -1.4887    0.9689 N   0  0  0  0  0  0  0  0  0  0  0  0
   -2.5022   -1.3661    1.4867 C   0  0  0  0  0  0  0  0  0  0  0  0
   -3.2955   -2.2510    0.9288 N   0  0  0  0  0  0  0  0  0  0  0  0
   -2.4616   -2.9163    0.0771 C   0  0  0  0  0  0  0  0  0  0  0  0
   -1.1977   -2.4843    0.0653 N   0  0  0  0  0  0  0  0  0  0  0  0
   -0.8827    1.3822    0.0962 C   0  0  0  0  0  0  0  0  0  0  0  0
   -1.6101    1.3964   -1.1152 C   0  0  0  0  0  0  0  0  0  0  0  0
   -2.6863    2.2668   -1.3241 C   0  0  0  0  0  0  0  0  0  0  0  0
   -3.0694    3.1470   -0.3240 C   0  0  0  0  0  0  0  0  0  0  0  0
   -4.3893    4.2176   -0.5805 Cl  0  0  0  0  0  0  0  0  0  0  0  0
   -2.3895    3.1602    0.8853 C   0  0  0  0  0  0  0  0  0  0  0  0
   -1.3122    2.2876    1.0985 C   0  0  0  0  0  0  0  0  0  0  0  0
   -0.5737    2.4025    2.6603 Cl  0  0  0  0  0  0  0  0  0  0  0  0
  1  2  1  0
  2  3  1  0
  3  4  1  0
  4  5  1  0
  5  6  1  1
  5  7  1  0
  7  8  1  0
  8  9  1  0
  9 10  2  0
 10 11  1  0
 11 12  2  0
  5 13  1  0
 13 14  2  0
 14 15  1  0
 15 16  2  0
 16 17  1  0
 16 18  1  0
 18 19  2  0
 19 20  1  0
 12  8  1  0
 19 13  1  0
M  END
