
     RDKit          3D

 21 21  0  0  0  0  0  0  0  0999 V2000
   -2.3888    0.9236    4.2121 C   0  0  0  0  0  0  0  0  0  0  0  0
   -1.6513    0.3256    3.0276 C   0  0  0  0  0  0  0  0  0  0  0  0
   -2.6123   -0.1883    1.9643 C   0  0  0  0  0  0  0  0  0  0  0  0
   -1.8645   -0.7530    0.9010 O   0  0  0  0  0  0  0  0  0  0  0  0
   -1.9283   -0.1082   -0.5877 P   0  0  0  0  0  5  0  0  0  0  0  0
   -1.6372    1.8272   -0.6661 S   0  0  0  0  0  0  0  0  0  0  0  0
   -3.4862   -0.4307   -0.9477 O   0  0  0  0  0  0  0  0  0  0  0  0
   -3.9982   -1.7435   -0.7842 C   0  0  0  0  0  0  0  0  0  0  0  0
   -4.8285   -2.1242   -2.0037 C   0  0  0  0  0  0  0  0  0  0  0  0
   -6.0351   -1.2157   -2.1915 C   0  0  0  0  0  0  0  0  0  0  0  0
   -0.7817   -1.3374   -1.8769 S   0  0  0  0  0  0  0  0  0  0  0  0
    0.8070   -0.4740   -2.0207 C   0  0  0  0  0  0  0  0  0  0  0  0
    1.4916   -0.2480   -0.6722 C   0  0  0  0  0  0  0  0  0  0  0  0
    0.9146   -0.4809    0.3888 O   0  0  0  0  0  0  0  0  0  0  0  0
    2.8253    0.2284   -0.7247 N   0  0  0  0  0  0  0  0  0  0  0  0
    3.1229    1.2075   -1.7790 C   0  0  0  0  0  0  0  0  0  0  0  0
    4.5857    1.6025   -1.8928 C   0  0  0  0  0  0  0  0  0  0  0  0
    5.1193    2.0455   -0.5451 C   0  0  0  0  0  0  0  0  0  0  0  0
    4.9733    0.8954    0.4333 C   0  0  0  0  0  0  0  0  0  0  0  0
    3.5159    0.4105    0.5790 C   0  0  2  0  0  0  0  0  0  0  0  0
    3.5775   -0.8851    1.4112 C   0  0  0  0  0  0  0  0  0  0  0  0
  1  2  1  0
  2  3  1  0
  3  4  1  0
  4  5  1  0
  5  6  2  0
  5  7  1  0
  7  8  1  0
  8  9  1  0
  9 10  1  0
  5 11  1  0
 11 12  1  0
 12 13  1  0
 13 14  2  0
 13 15  1  0
 15 16  1  0
 16 17  1  0
 17 18  1  0
 18 19  1  0
 19 20  1  0
 20 21  1  6
 20 15  1  0
M  END
