
     RDKit          3D

 26 28  0  0  0  0  0  0  0  0999 V2000
   -3.4421    0.8608    2.5104 C   0  0  0  0  0  0  0  0  0  0  0  0
   -3.2479   -0.4059    1.7106 C   0  0  0  0  0  0  0  0  0  0  0  0
   -3.5228   -1.6585    2.5082 C   0  0  0  0  0  0  0  0  0  0  0  0
   -3.5720   -0.3361    0.2269 C   0  0  2  0  0  0  0  0  0  0  0  0
   -4.2256   -1.4655   -0.4539 C   0  0  0  0  0  0  0  0  0  0  0  0
   -5.5380   -1.7446   -0.4866 C   0  0  0  0  0  0  0  0  0  0  0  0
   -6.7058   -0.7631    0.3207 Cl  0  0  0  0  0  0  0  0  0  0  0  0
   -6.1140   -3.1241   -1.3524 Cl  0  0  0  0  0  0  0  0  0  0  0  0
   -2.1317   -0.4806    0.6771 C   0  0  1  0  0  0  0  0  0  0  0  0
   -1.1606    0.6273    0.5158 C   0  0  0  0  0  0  0  0  0  0  0  0
   -0.3409    0.8897    1.3821 O   0  0  0  0  0  0  0  0  0  0  0  0
   -1.2932    1.2366   -0.6888 O   0  0  0  0  0  0  0  0  0  0  0  0
   -0.3329    2.2622   -0.9634 C   0  0  0  0  0  0  0  0  0  0  0  0
    0.8058    1.6778   -1.7576 C   0  0  0  0  0  0  0  0  0  0  0  0
    0.6336    1.3506   -3.1112 C   0  0  0  0  0  0  0  0  0  0  0  0
    1.6843    0.8001   -3.8470 C   0  0  0  0  0  0  0  0  0  0  0  0
    2.9125    0.5576   -3.2330 C   0  0  0  0  0  0  0  0  0  0  0  0
    3.0831    0.8471   -1.8795 C   0  0  0  0  0  0  0  0  0  0  0  0
    4.3288    0.6057   -1.3460 O   0  0  0  0  0  0  0  0  0  0  0  0
    4.3884    0.0045   -0.1093 C   0  0  0  0  0  0  0  0  0  0  0  0
    5.3099    0.5235    0.8001 C   0  0  0  0  0  0  0  0  0  0  0  0
    5.4465   -0.0580    2.0609 C   0  0  0  0  0  0  0  0  0  0  0  0
    4.6711   -1.1653    2.4053 C   0  0  0  0  0  0  0  0  0  0  0  0
    3.7650   -1.6978    1.4875 C   0  0  0  0  0  0  0  0  0  0  0  0
    3.6295   -1.1203    0.2245 C   0  0  0  0  0  0  0  0  0  0  0  0
    2.0409    1.4211   -1.1453 C   0  0  0  0  0  0  0  0  0  0  0  0
  1  2  1  0
  2  3  1  0
  2  4  1  0
  4  5  1  6
  5  6  2  3
  6  7  1  0
  6  8  1  0
  4  9  1  0
  9 10  1  1
 10 11  2  0
 10 12  1  0
 12 13  1  0
 13 14  1  0
 14 15  2  0
 15 16  1  0
 16 17  2  0
 17 18  1  0
 18 19  1  0
 19 20  1  0
 20 21  2  0
 21 22  1  0
 22 23  2  0
 23 24  1  0
 24 25  2  0
 18 26  2  0
  9  2  1  0
 26 14  1  0
 25 20  1  0
M  END
