
     RDKit          3D

 20 21  0  0  0  0  0  0  0  0999 V2000
   -2.8954   -0.5006   -0.1897 C   0  0  0  0  0  0  0  0  0  0  0  0
   -1.4883   -1.0222   -0.5268 C   0  0  0  0  0  0  0  0  0  0  0  0
   -1.6463   -2.0796   -1.6449 C   0  0  0  0  0  0  0  0  0  0  0  0
   -0.9291   -1.7329    0.7199 C   0  0  0  0  0  0  0  0  0  0  0  0
   -0.4987    0.0936   -1.0245 C   0  0  1  0  0  0  0  0  0  0  0  0
   -0.9484    0.6565   -2.2621 O   0  0  0  0  0  0  0  0  0  0  0  0
   -0.1144    1.2147   -0.0414 C   0  0  0  0  0  0  0  0  0  0  0  0
    1.0627    1.2076    0.6348 C   0  0  0  0  0  0  0  0  0  0  0  0
    2.1332    0.2070    0.5437 C   0  0  0  0  0  0  0  0  0  0  0  0
    2.9260    0.1062   -0.6064 C   0  0  0  0  0  0  0  0  0  0  0  0
    3.9566   -0.8349   -0.6711 C   0  0  0  0  0  0  0  0  0  0  0  0
    4.2032   -1.6671    0.4188 C   0  0  0  0  0  0  0  0  0  0  0  0
    5.4718   -2.8260    0.3403 Cl  0  0  0  0  0  0  0  0  0  0  0  0
    3.4309   -1.5637    1.5743 C   0  0  0  0  0  0  0  0  0  0  0  0
    2.3998   -0.6228    1.6389 C   0  0  0  0  0  0  0  0  0  0  0  0
   -1.0372    2.2884    0.0882 N   0  0  0  0  0  0  0  0  0  0  0  0
   -0.9713    3.3676    0.9641 C   0  0  0  0  0  0  0  0  0  0  0  0
   -1.9836    4.1866    0.8098 N   0  0  0  0  0  0  0  0  0  0  0  0
   -2.6827    3.6016   -0.1899 C   0  0  0  0  0  0  0  0  0  0  0  0
   -2.1712    2.4676   -0.6630 N   0  0  0  0  0  0  0  0  0  0  0  0
  1  2  1  0
  2  3  1  0
  2  4  1  0
  2  5  1  0
  5  6  1  6
  5  7  1  0
  7  8  2  0
  8  9  1  0
  9 10  2  0
 10 11  1  0
 11 12  2  0
 12 13  1  0
 12 14  1  0
 14 15  2  0
  7 16  1  0
 16 17  1  0
 17 18  2  0
 18 19  1  0
 19 20  2  0
 15  9  1  0
 20 16  1  0
M  END
