
     RDKit          3D

 26 28  0  0  0  0  0  0  0  0999 V2000
   -5.0372   -1.3508   -1.0904 C   0  0  0  0  0  0  0  0  0  0  0  0
   -3.8857   -0.5449   -0.5429 C   0  0  0  0  0  0  0  0  0  0  0  0
   -2.6624   -1.3866   -0.2471 C   0  0  0  0  0  0  0  0  0  0  0  0
   -3.7155    0.8753   -1.0697 C   0  0  2  0  0  0  0  0  0  0  0  0
   -2.3842    1.4451   -1.3764 C   0  0  0  0  0  0  0  0  0  0  0  0
   -1.9799    2.4715   -0.8522 O   0  0  0  0  0  0  0  0  0  0  0  0
   -1.7444    0.7134   -2.3209 O   0  0  0  0  0  0  0  0  0  0  0  0
   -0.4181    1.1432   -2.6392 C   0  0  0  0  0  0  0  0  0  0  0  0
    0.5677    0.3076   -1.8664 C   0  0  0  0  0  0  0  0  0  0  0  0
    0.9574   -0.9540   -2.3379 C   0  0  0  0  0  0  0  0  0  0  0  0
    1.8406   -1.7453   -1.6017 C   0  0  0  0  0  0  0  0  0  0  0  0
    2.3426   -1.2844   -0.3860 C   0  0  0  0  0  0  0  0  0  0  0  0
    1.9692   -0.0246    0.0841 C   0  0  0  0  0  0  0  0  0  0  0  0
    2.3984    0.4701    1.2939 O   0  0  0  0  0  0  0  0  0  0  0  0
    3.7479    0.4041    1.5571 C   0  0  0  0  0  0  0  0  0  0  0  0
    4.1271   -0.0428    2.8231 C   0  0  0  0  0  0  0  0  0  0  0  0
    5.4791   -0.1018    3.1637 C   0  0  0  0  0  0  0  0  0  0  0  0
    6.4484    0.2998    2.2436 C   0  0  0  0  0  0  0  0  0  0  0  0
    6.0675    0.7707    0.9859 C   0  0  0  0  0  0  0  0  0  0  0  0
    4.7156    0.8312    0.6433 C   0  0  0  0  0  0  0  0  0  0  0  0
    1.0692    0.7587   -0.6384 C   0  0  0  0  0  0  0  0  0  0  0  0
   -4.2281    0.6454    0.3382 C   0  0  2  0  0  0  0  0  0  0  0  0
   -3.4220    0.9477    1.5333 C   0  0  0  0  0  0  0  0  0  0  0  0
   -3.4980    0.3569    2.7367 C   0  0  0  0  0  0  0  0  0  0  0  0
   -2.4789    0.8743    4.0326 Cl  0  0  0  0  0  0  0  0  0  0  0  0
   -4.6110   -0.9222    3.0613 Cl  0  0  0  0  0  0  0  0  0  0  0  0
  1  2  1  0
  2  3  1  0
  2  4  1  0
  4  5  1  1
  5  6  2  0
  5  7  1  0
  7  8  1  0
  8  9  1  0
  9 10  2  0
 10 11  1  0
 11 12  2  0
 12 13  1  0
 13 14  1  0
 14 15  1  0
 15 16  2  0
 16 17  1  0
 17 18  2  0
 18 19  1  0
 19 20  2  0
 13 21  2  0
  4 22  1  0
 22 23  1  1
 23 24  2  3
 24 25  1  0
 24 26  1  0
 22  2  1  0
 21  9  1  0
 20 15  1  0
M  END
