
     RDKit          3D

 20 21  0  0  0  0  0  0  0  0999 V2000
   -3.4313   -2.3953    1.3182 C   0  0  0  0  0  0  0  0  0  0  0  0
   -3.6846   -1.2906    0.3022 C   0  0  0  0  0  0  0  0  0  0  0  0
   -2.4547   -0.5992   -0.0915 N   0  0  0  0  0  0  0  0  0  0  0  0
   -2.0155    0.4801    0.7982 C   0  0  0  0  0  0  0  0  0  0  0  0
   -2.4527    1.8571    0.3332 C   0  0  0  0  0  0  0  0  0  0  0  0
   -1.7076   -1.1655   -1.1211 C   0  0  0  0  0  0  0  0  0  0  0  0
   -2.0300   -2.2595   -1.6063 O   0  0  0  0  0  0  0  0  0  0  0  0
   -0.5216   -0.4103   -1.7766 C   0  0  1  0  0  0  0  0  0  0  0  0
   -1.0875    0.4737   -2.8903 C   0  0  0  0  0  0  0  0  0  0  0  0
    0.3265    0.3978   -0.9827 O   0  0  0  0  0  0  0  0  0  0  0  0
    1.3747   -0.2027   -0.3229 C   0  0  0  0  0  0  0  0  0  0  0  0
    1.4646   -1.5791   -0.0877 C   0  0  0  0  0  0  0  0  0  0  0  0
    2.5492   -2.1026    0.6135 C   0  0  0  0  0  0  0  0  0  0  0  0
    3.5468   -1.2574    1.0936 C   0  0  0  0  0  0  0  0  0  0  0  0
    3.4743    0.1268    0.8850 C   0  0  0  0  0  0  0  0  0  0  0  0
    4.4782    0.9769    1.3787 C   0  0  0  0  0  0  0  0  0  0  0  0
    4.4127    2.3556    1.1788 C   0  0  0  0  0  0  0  0  0  0  0  0
    3.3426    2.9028    0.4820 C   0  0  0  0  0  0  0  0  0  0  0  0
    2.3380    2.0702   -0.0152 C   0  0  0  0  0  0  0  0  0  0  0  0
    2.3778    0.6705    0.1720 C   0  0  0  0  0  0  0  0  0  0  0  0
  1  2  1  0
  2  3  1  0
  3  4  1  0
  4  5  1  0
  3  6  1  0
  6  7  2  0
  6  8  1  0
  8  9  1  6
  8 10  1  0
 10 11  1  0
 11 12  2  0
 12 13  1  0
 13 14  2  0
 14 15  1  0
 15 16  2  0
 16 17  1  0
 17 18  2  0
 18 19  1  0
 19 20  2  0
 20 11  1  0
 20 15  1  0
M  END
