
     RDKit          3D

 20 21  0  0  0  0  0  0  0  0999 V2000
   -3.9391    1.7001    0.8618 C   0  0  0  0  0  0  0  0  0  0  0  0
   -3.2174    0.4502    1.3441 C   0  0  0  0  0  0  0  0  0  0  0  0
   -2.8989   -0.4854    0.2591 N   0  0  0  0  0  0  0  0  0  0  0  0
   -4.0351   -1.1187   -0.4199 C   0  0  0  0  0  0  0  0  0  0  0  0
   -4.2633   -0.5549   -1.8153 C   0  0  0  0  0  0  0  0  0  0  0  0
   -1.6198   -0.9442   -0.0833 C   0  0  0  0  0  0  0  0  0  0  0  0
   -1.4891   -1.8494   -0.9145 O   0  0  0  0  0  0  0  0  0  0  0  0
   -0.3758   -0.3026    0.5872 C   0  0  2  0  0  0  0  0  0  0  0  0
   -0.1499    1.1303    0.0897 C   0  0  0  0  0  0  0  0  0  0  0  0
    0.7783   -1.1652    0.5514 O   0  0  0  0  0  0  0  0  0  0  0  0
    1.7547   -0.8739   -0.3649 C   0  0  0  0  0  0  0  0  0  0  0  0
    1.5417   -1.1394   -1.7183 C   0  0  0  0  0  0  0  0  0  0  0  0
    2.5413   -0.8637   -2.6465 C   0  0  0  0  0  0  0  0  0  0  0  0
    3.7623   -0.3408   -2.2214 C   0  0  0  0  0  0  0  0  0  0  0  0
    4.0084   -0.1014   -0.8598 C   0  0  0  0  0  0  0  0  0  0  0  0
    5.2461    0.4063   -0.4304 C   0  0  0  0  0  0  0  0  0  0  0  0
    5.4974    0.6328    0.9233 C   0  0  0  0  0  0  0  0  0  0  0  0
    4.5157    0.3526    1.8667 C   0  0  0  0  0  0  0  0  0  0  0  0
    3.2800   -0.1497    1.4557 C   0  0  0  0  0  0  0  0  0  0  0  0
    2.9990   -0.3813    0.0921 C   0  0  0  0  0  0  0  0  0  0  0  0
  1  2  1  0
  2  3  1  0
  3  4  1  0
  4  5  1  0
  3  6  1  0
  6  7  2  0
  6  8  1  0
  8  9  1  6
  8 10  1  0
 10 11  1  0
 11 12  2  0
 12 13  1  0
 13 14  2  0
 14 15  1  0
 15 16  2  0
 16 17  1  0
 17 18  2  0
 18 19  1  0
 19 20  2  0
 20 11  1  0
 20 15  1  0
M  END
