
     RDKit          3D

 21 21  0  0  0  0  0  0  0  0999 V2000
   -0.9469    4.8512    0.9517 C   0  0  0  0  0  0  0  0  0  0  0  0
   -1.1851    3.4571    0.4080 C   0  0  0  0  0  0  0  0  0  0  0  0
    0.0424    2.7522    0.4267 O   0  0  0  0  0  0  0  0  0  0  0  0
    0.2163    1.3739   -0.4089 P   0  0  2  0  0  5  0  0  0  0  0  0
    0.0514    1.6122   -2.3329 S   0  0  0  0  0  0  0  0  0  0  0  0
   -0.7376    0.2977    0.3885 N   0  0  0  0  0  0  0  0  0  0  0  0
   -2.1481    0.0994    0.0791 C   0  0  2  0  0  0  0  0  0  0  0  0
   -2.9312   -0.0740    1.3842 C   0  0  0  0  0  0  0  0  0  0  0  0
   -2.2822   -1.1310   -0.8345 C   0  0  0  0  0  0  0  0  0  0  0  0
   -3.7031   -1.3615   -1.3317 C   0  0  0  0  0  0  0  0  0  0  0  0
    1.7308    1.0088    0.0762 O   0  0  0  0  0  0  0  0  0  0  0  0
    2.2122   -0.2712    0.0586 C   0  0  0  0  0  0  0  0  0  0  0  0
    2.5525   -0.8621   -1.1593 C   0  0  0  0  0  0  0  0  0  0  0  0
    3.0849   -2.1607   -1.1987 C   0  0  0  0  0  0  0  0  0  0  0  0
    3.4672   -2.7775   -2.5137 C   0  0  0  0  0  0  0  0  0  0  0  0
    3.3184   -2.8489   -0.0004 C   0  0  0  0  0  0  0  0  0  0  0  0
    3.0061   -2.2579    1.2243 C   0  0  0  0  0  0  0  0  0  0  0  0
    2.4536   -0.9711    1.2438 C   0  0  0  0  0  0  0  0  0  0  0  0
    2.1388   -0.3808    2.5356 N   0  0  0  0  0  4  0  0  0  0  0  0
    1.0313    0.1629    2.6687 O   0  0  0  0  0  0  0  0  0  0  0  0
    2.9853   -0.4977    3.4326 O   0  0  0  0  0  1  0  0  0  0  0  0
  1  2  1  0
  2  3  1  0
  3  4  1  0
  4  5  2  0
  4  6  1  1
  6  7  1  0
  7  8  1  1
  7  9  1  0
  9 10  1  0
  4 11  1  0
 11 12  1  0
 12 13  2  0
 13 14  1  0
 14 15  1  0
 14 16  2  0
 16 17  1  0
 17 18  2  0
 18 19  1  0
 19 20  2  0
 19 21  1  0
 18 12  1  0
M  CHG  2  19   1  21  -1
M  END
