
     RDKit          3D

 19 20  0  0  0  0  0  0  0  0999 V2000
   -0.1736    2.4975    0.4936 O   0  0  0  0  0  0  0  0  0  0  0  0
   -0.9021    1.5166    0.4581 C   0  0  0  0  0  0  0  0  0  0  0  0
   -2.4039    1.5761    0.6955 C   0  0  1  0  0  0  0  0  0  0  0  0
   -3.1610    2.1463   -0.8132 Cl  0  0  0  0  0  0  0  0  0  0  0  0
   -2.7304    0.1266    1.0528 C   0  0  1  0  0  0  0  0  0  0  0  0
   -4.1649   -0.3392    0.8681 C   0  0  0  0  0  0  0  0  0  0  0  0
   -5.2712    0.5772    1.9158 Cl  0  0  0  0  0  0  0  0  0  0  0  0
   -1.7464   -0.6582    0.1986 C   0  0  0  0  0  0  0  0  0  0  0  0
   -0.5675    0.1787    0.1618 N   0  0  0  0  0  0  0  0  0  0  0  0
    0.7075   -0.3056   -0.2428 C   0  0  0  0  0  0  0  0  0  0  0  0
    0.8572   -1.6222   -0.7069 C   0  0  0  0  0  0  0  0  0  0  0  0
    2.1020   -2.1156   -1.1108 C   0  0  0  0  0  0  0  0  0  0  0  0
    3.2278   -1.3009   -1.0562 C   0  0  0  0  0  0  0  0  0  0  0  0
    3.1177    0.0140   -0.5921 C   0  0  0  0  0  0  0  0  0  0  0  0
    4.3221    0.9219   -0.5359 C   0  0  0  0  0  0  0  0  0  0  0  0
    5.5049    0.2516   -0.6424 F   0  0  0  0  0  0  0  0  0  0  0  0
    4.4024    1.6253    0.6273 F   0  0  0  0  0  0  0  0  0  0  0  0
    4.3273    1.8435   -1.5374 F   0  0  0  0  0  0  0  0  0  0  0  0
    1.8548    0.4981   -0.1959 C   0  0  0  0  0  0  0  0  0  0  0  0
  1  2  2  0
  2  3  1  0
  3  4  1  6
  3  5  1  0
  5  6  1  6
  6  7  1  0
  5  8  1  0
  8  9  1  0
  9 10  1  0
 10 11  2  0
 11 12  1  0
 12 13  2  0
 13 14  1  0
 14 15  1  0
 15 16  1  0
 15 17  1  0
 15 18  1  0
 14 19  2  0
  9  2  1  0
 19 10  1  0
M  END
