
     RDKit          3D

 25 27  0  0  0  0  0  0  0  0999 V2000
   -2.6736   -2.2183    0.8230 C   0  0  0  0  0  0  0  0  0  0  0  0
   -3.5974   -1.0068    0.5794 C   0  0  0  0  0  0  0  0  0  0  0  0
   -4.9546   -1.5741    0.0896 C   0  0  0  0  0  0  0  0  0  0  0  0
   -3.8655   -0.3039    1.9209 C   0  0  0  0  0  0  0  0  0  0  0  0
   -3.0357   -0.0241   -0.5105 C   0  0  2  0  0  0  0  0  0  0  0  0
   -2.6937   -0.7893   -1.6975 O   0  0  0  0  0  0  0  0  0  0  0  0
   -1.8026    0.8768   -0.1743 C   0  0  2  0  0  0  0  0  0  0  0  0
   -0.9424    0.2936    0.8203 O   0  0  0  0  0  0  0  0  0  0  0  0
    0.3466    0.1021    0.4080 C   0  0  0  0  0  0  0  0  0  0  0  0
    0.6783   -0.6439   -0.7195 C   0  0  0  0  0  0  0  0  0  0  0  0
    2.0219   -0.8016   -1.0766 C   0  0  0  0  0  0  0  0  0  0  0  0
    3.0512   -0.2310   -0.3086 C   0  0  0  0  0  0  0  0  0  0  0  0
    4.4646   -0.3786   -0.6972 C   0  0  0  0  0  0  0  0  0  0  0  0
    4.8997   -0.0365   -1.9887 C   0  0  0  0  0  0  0  0  0  0  0  0
    6.2425   -0.1638   -2.3541 C   0  0  0  0  0  0  0  0  0  0  0  0
    7.1727   -0.6407   -1.4338 C   0  0  0  0  0  0  0  0  0  0  0  0
    6.7630   -0.9874   -0.1496 C   0  0  0  0  0  0  0  0  0  0  0  0
    5.4200   -0.8604    0.2139 C   0  0  0  0  0  0  0  0  0  0  0  0
    2.6911    0.4796    0.8499 C   0  0  0  0  0  0  0  0  0  0  0  0
    1.3501    0.6372    1.2114 C   0  0  0  0  0  0  0  0  0  0  0  0
   -2.1390    2.2252    0.2864 N   0  0  0  0  0  0  0  0  0  0  0  0
   -1.2861    3.2924    0.3235 C   0  0  0  0  0  0  0  0  0  0  0  0
   -1.9159    4.3470    0.7864 N   0  0  0  0  0  0  0  0  0  0  0  0
   -3.1787    3.8777    1.0072 C   0  0  0  0  0  0  0  0  0  0  0  0
   -3.3769    2.5986    0.6822 N   0  0  0  0  0  0  0  0  0  0  0  0
  1  2  1  0
  2  3  1  0
  2  4  1  0
  2  5  1  0
  5  6  1  6
  5  7  1  0
  7  8  1  1
  8  9  1  0
  9 10  2  0
 10 11  1  0
 11 12  2  0
 12 13  1  0
 13 14  2  0
 14 15  1  0
 15 16  2  0
 16 17  1  0
 17 18  2  0
 12 19  1  0
 19 20  2  0
  7 21  1  0
 21 22  1  0
 22 23  2  0
 23 24  1  0
 24 25  2  0
 20  9  1  0
 25 21  1  0
 18 13  1  0
M  END
