
     RDKit          3D

 27 29  0  0  0  0  0  0  0  0999 V2000
   -2.1242    1.6346   -1.3390 C   0  0  0  0  0  0  0  0  0  0  0  0
   -2.1931    0.3392   -0.5038 C   0  0  2  0  0  0  0  0  0  0  0  0
   -2.7892   -0.6373   -1.3610 O   0  0  0  0  0  0  0  0  0  0  0  0
   -3.0719    0.5194    0.7558 C   0  0  0  0  0  0  0  0  0  0  0  0
   -4.3898    1.0478    0.4807 N   0  0  0  0  0  0  0  0  0  0  0  0
   -5.4821    0.3760    0.0288 C   0  0  0  0  0  0  0  0  0  0  0  0
   -6.4984    1.2035   -0.0584 N   0  0  0  0  0  0  0  0  0  0  0  0
   -5.9666    2.3882    0.3644 C   0  0  0  0  0  0  0  0  0  0  0  0
   -4.6757    2.3451    0.7069 N   0  0  0  0  0  0  0  0  0  0  0  0
   -0.8041   -0.1713   -0.0646 C   0  0  0  0  0  0  0  0  0  0  0  0
    0.1891    0.7798    0.2714 C   0  0  0  0  0  0  0  0  0  0  0  0
    1.4702    0.4023    0.6799 C   0  0  0  0  0  0  0  0  0  0  0  0
    1.7987   -0.9434    0.7592 C   0  0  0  0  0  0  0  0  0  0  0  0
    3.0269   -1.3932    1.1837 O   0  0  0  0  0  0  0  0  0  0  0  0
    4.1407   -0.7874    0.6491 C   0  0  0  0  0  0  0  0  0  0  0  0
    5.1429   -0.4004    1.5402 C   0  0  0  0  0  0  0  0  0  0  0  0
    6.3127    0.1892    1.0572 C   0  0  0  0  0  0  0  0  0  0  0  0
    6.4789    0.3727   -0.3155 C   0  0  0  0  0  0  0  0  0  0  0  0
    7.9201    1.0994   -0.9111 Cl  0  0  0  0  0  0  0  0  0  0  0  0
    5.4890   -0.0347   -1.2100 C   0  0  0  0  0  0  0  0  0  0  0  0
    4.3184   -0.6245   -0.7279 C   0  0  0  0  0  0  0  0  0  0  0  0
    0.8329   -1.9065    0.4829 C   0  0  0  0  0  0  0  0  0  0  0  0
   -0.4755   -1.5501    0.0790 C   0  0  0  0  0  0  0  0  0  0  0  0
   -1.4418   -2.6965   -0.1840 C   0  0  0  0  0  0  0  0  0  0  0  0
   -1.6590   -2.9079   -1.5117 F   0  0  0  0  0  0  0  0  0  0  0  0
   -0.9824   -3.8928    0.2925 F   0  0  0  0  0  0  0  0  0  0  0  0
   -2.6563   -2.5347    0.4083 F   0  0  0  0  0  0  0  0  0  0  0  0
  2  1  1  6
  2  3  1  0
  2  4  1  0
  4  5  1  0
  5  6  1  0
  6  7  2  0
  7  8  1  0
  8  9  2  0
  2 10  1  0
 10 11  2  0
 11 12  1  0
 12 13  2  0
 13 14  1  0
 14 15  1  0
 15 16  2  0
 16 17  1  0
 17 18  2  0
 18 19  1  0
 18 20  1  0
 20 21  2  0
 13 22  1  0
 22 23  2  0
 23 24  1  0
 24 25  1  0
 24 26  1  0
 24 27  1  0
  9  5  1  0
 23 10  1  0
 21 15  1  0
M  END
