
     RDKit          3D

 25 27  0  0  0  0  0  0  0  0999 V2000
   -4.3050   -0.5161   -2.5001 C   0  0  0  0  0  0  0  0  0  0  0  0
   -4.4968   -0.0714   -1.0762 C   0  0  0  0  0  0  0  0  0  0  0  0
   -3.9540   -0.7565   -0.0503 C   0  0  0  0  0  0  0  0  0  0  0  0
   -4.0737   -0.4495    1.3819 C   0  0  1  0  0  0  0  0  0  0  0  0
   -2.9904   -0.8083    2.3772 C   0  0  2  0  0  0  0  0  0  0  0  0
   -3.2340    0.6512    2.0122 C   0  0  0  0  0  0  0  0  0  0  0  0
   -2.2178    1.4016    1.1789 C   0  0  0  0  0  0  0  0  0  0  0  0
   -3.8998    1.5191    3.0529 C   0  0  0  0  0  0  0  0  0  0  0  0
   -1.7488   -1.5273    2.0092 C   0  0  0  0  0  0  0  0  0  0  0  0
   -1.7686   -2.6171    1.4583 O   0  0  0  0  0  0  0  0  0  0  0  0
   -0.6494   -0.8602    2.4383 O   0  0  0  0  0  0  0  0  0  0  0  0
    0.6163   -1.4507    2.1148 C   0  0  0  0  0  0  0  0  0  0  0  0
    1.4476   -0.5055    1.3195 C   0  0  0  0  0  0  0  0  0  0  0  0
    1.7625    0.8002    1.6394 C   0  0  0  0  0  0  0  0  0  0  0  0
    2.5441    1.3605    0.6833 O   0  0  0  0  0  0  0  0  0  0  0  0
    2.7485    0.4088   -0.2721 C   0  0  0  0  0  0  0  0  0  0  0  0
    2.0883   -0.7526    0.0724 C   0  0  0  0  0  0  0  0  0  0  0  0
    3.5941    0.7986   -1.4316 C   0  0  0  0  0  0  0  0  0  0  0  0
    4.9771    0.1915   -1.3767 C   0  0  0  0  0  0  0  0  0  0  0  0
    5.3058   -0.9197   -2.1658 C   0  0  0  0  0  0  0  0  0  0  0  0
    6.5824   -1.4802   -2.1008 C   0  0  0  0  0  0  0  0  0  0  0  0
    7.5412   -0.9389   -1.2466 C   0  0  0  0  0  0  0  0  0  0  0  0
    7.2237    0.1607   -0.4527 C   0  0  0  0  0  0  0  0  0  0  0  0
    5.9481    0.7225   -0.5152 C   0  0  0  0  0  0  0  0  0  0  0  0
   -5.3301    1.1690   -0.9087 C   0  0  0  0  0  0  0  0  0  0  0  0
  1  2  1  0
  2  3  2  3
  4  3  1  6
  4  5  1  0
  5  6  1  0
  6  7  1  0
  6  8  1  0
  5  9  1  6
  9 10  2  0
  9 11  1  0
 11 12  1  0
 12 13  1  0
 13 14  2  0
 14 15  1  0
 15 16  1  0
 16 17  2  0
 16 18  1  0
 18 19  1  0
 19 20  2  0
 20 21  1  0
 21 22  2  0
 22 23  1  0
 23 24  2  0
  2 25  1  0
  6  4  1  0
 17 13  1  0
 24 19  1  0
M  END
