
     RDKit          3D

 26 28  0  0  0  0  0  0  0  0999 V2000
   -5.0349   -0.3219   -0.9001 C   0  0  0  0  0  0  0  0  0  0  0  0
   -3.6701    0.0424   -0.3608 C   0  0  0  0  0  0  0  0  0  0  0  0
   -2.7363   -1.1443   -0.2699 C   0  0  0  0  0  0  0  0  0  0  0  0
   -3.1161    1.4111   -0.7452 C   0  0  2  0  0  0  0  0  0  0  0  0
   -1.6849    1.6017   -1.0882 C   0  0  0  0  0  0  0  0  0  0  0  0
   -0.9537    2.3613   -0.4680 O   0  0  0  0  0  0  0  0  0  0  0  0
   -1.3439    0.8752   -2.1836 O   0  0  0  0  0  0  0  0  0  0  0  0
    0.0398    0.9145   -2.5429 C   0  0  0  0  0  0  0  0  0  0  0  0
    0.6883   -0.3598   -2.0679 C   0  0  0  0  0  0  0  0  0  0  0  0
    0.6392   -1.5207   -2.8538 C   0  0  0  0  0  0  0  0  0  0  0  0
    1.1897   -2.7168   -2.3897 C   0  0  0  0  0  0  0  0  0  0  0  0
    1.7916   -2.7653   -1.1341 C   0  0  0  0  0  0  0  0  0  0  0  0
    1.8553   -1.6136   -0.3499 C   0  0  0  0  0  0  0  0  0  0  0  0
    2.4239   -1.7289    0.8985 O   0  0  0  0  0  0  0  0  0  0  0  0
    3.3965   -0.8099    1.2259 C   0  0  0  0  0  0  0  0  0  0  0  0
    4.4563   -0.4937    0.3722 C   0  0  0  0  0  0  0  0  0  0  0  0
    5.4261    0.4237    0.7842 C   0  0  0  0  0  0  0  0  0  0  0  0
    5.3437    1.0089    2.0485 C   0  0  0  0  0  0  0  0  0  0  0  0
    4.2959    0.6749    2.9071 C   0  0  0  0  0  0  0  0  0  0  0  0
    3.3248   -0.2405    2.4981 C   0  0  0  0  0  0  0  0  0  0  0  0
    1.2900   -0.4181   -0.8020 C   0  0  0  0  0  0  0  0  0  0  0  0
   -3.6107    1.1624    0.6681 C   0  0  2  0  0  0  0  0  0  0  0  0
   -2.6819    1.1224    1.8132 C   0  0  0  0  0  0  0  0  0  0  0  0
   -2.2318    2.1673    2.5300 C   0  0  0  0  0  0  0  0  0  0  0  0
   -2.7096    3.7916    2.1869 Cl  0  0  0  0  0  0  0  0  0  0  0  0
   -1.1621    1.9149    3.8653 Cl  0  0  0  0  0  0  0  0  0  0  0  0
  1  2  1  0
  2  3  1  0
  2  4  1  0
  4  5  1  1
  5  6  2  0
  5  7  1  0
  7  8  1  0
  8  9  1  0
  9 10  2  0
 10 11  1  0
 11 12  2  0
 12 13  1  0
 13 14  1  0
 14 15  1  0
 15 16  2  0
 16 17  1  0
 17 18  2  0
 18 19  1  0
 19 20  2  0
 13 21  2  0
  4 22  1  0
 22 23  1  1
 23 24  2  3
 24 25  1  0
 24 26  1  0
 22  2  1  0
 21  9  1  0
 20 15  1  0
M  END
