
     RDKit          3D

 21 22  0  0  0  0  0  0  0  0999 V2000
   -2.2937   -1.9743   -0.8653 C   0  0  0  0  0  0  0  0  0  0  0  0
   -1.8512   -0.7138   -0.0754 C   0  0  0  0  0  0  0  0  0  0  0  0
   -1.3972   -1.1810    1.3138 C   0  0  0  0  0  0  0  0  0  0  0  0
   -3.1078    0.1625    0.0890 C   0  0  0  0  0  0  0  0  0  0  0  0
   -0.6978   -0.0254   -0.8859 C   0  0  1  0  0  0  0  0  0  0  0  0
   -1.2226    0.4075   -2.1590 O   0  0  0  0  0  0  0  0  0  0  0  0
    0.1621    1.1358   -0.2935 C   0  0  2  0  0  0  0  0  0  0  0  0
    1.2659    0.7166    0.7103 C   0  0  0  0  0  0  0  0  0  0  0  0
    2.2866   -0.3073    0.2394 C   0  0  0  0  0  0  0  0  0  0  0  0
    2.8265   -0.2200   -1.0580 C   0  0  0  0  0  0  0  0  0  0  0  0
    3.7813   -1.1371   -1.5067 C   0  0  0  0  0  0  0  0  0  0  0  0
    4.2281   -2.1437   -0.6590 C   0  0  0  0  0  0  0  0  0  0  0  0
    5.4044   -3.2694   -1.2126 Cl  0  0  0  0  0  0  0  0  0  0  0  0
    3.7380   -2.2359    0.6381 C   0  0  0  0  0  0  0  0  0  0  0  0
    2.7824   -1.3188    1.0880 C   0  0  0  0  0  0  0  0  0  0  0  0
    2.2652   -1.4807    2.7308 Cl  0  0  0  0  0  0  0  0  0  0  0  0
   -0.6522    2.2521    0.1781 N   0  0  0  0  0  0  0  0  0  0  0  0
   -0.7886    2.7741    1.4270 C   0  0  0  0  0  0  0  0  0  0  0  0
   -1.5935    3.8107    1.3866 N   0  0  0  0  0  0  0  0  0  0  0  0
   -1.9299    3.8922    0.0677 C   0  0  0  0  0  0  0  0  0  0  0  0
   -1.3846    2.9569   -0.7148 N   0  0  0  0  0  0  0  0  0  0  0  0
  1  2  1  0
  2  3  1  0
  2  4  1  0
  2  5  1  0
  5  6  1  6
  5  7  1  0
  7  8  1  1
  8  9  1  0
  9 10  2  0
 10 11  1  0
 11 12  2  0
 12 13  1  0
 12 14  1  0
 14 15  2  0
 15 16  1  0
  7 17  1  0
 17 18  1  0
 18 19  2  0
 19 20  1  0
 20 21  2  0
 15  9  1  0
 21 17  1  0
M  END
