
     RDKit          3D

 19 20  0  0  0  0  0  0  0  0999 V2000
   -4.5352    2.0251    1.3232 C   0  0  0  0  0  0  0  0  0  0  0  0
   -3.8609    0.6810    1.5168 C   0  0  0  0  0  0  0  0  0  0  0  0
   -2.9185    0.4997    0.4642 O   0  0  0  0  0  0  0  0  0  0  0  0
   -2.2644   -0.7749    0.5366 C   0  0  2  0  0  0  0  0  0  0  0  0
   -1.4714   -0.8844    1.7478 O   0  0  0  0  0  0  0  0  0  0  0  0
   -0.2043   -0.5567    1.3439 C   0  0  0  0  0  0  0  0  0  0  0  0
    0.8299   -0.2637    2.2077 C   0  0  0  0  0  0  0  0  0  0  0  0
    2.0798    0.0475    1.6615 C   0  0  0  0  0  0  0  0  0  0  0  0
    2.2689    0.0483    0.2695 C   0  0  0  0  0  0  0  0  0  0  0  0
    3.4498    0.3374   -0.3683 O   0  0  0  0  0  0  0  0  0  0  0  0
    4.8245    0.6776    0.4374 S   0  0  0  0  0  6  0  0  0  0  0  0
    5.8491    0.9107   -0.9926 C   0  0  0  0  0  0  0  0  0  0  0  0
    5.2879   -0.5070    1.1315 O   0  0  0  0  0  0  0  0  0  0  0  0
    4.6944    1.9559    1.1075 O   0  0  0  0  0  0  0  0  0  0  0  0
    1.2037   -0.2668   -0.5853 C   0  0  0  0  0  0  0  0  0  0  0  0
   -0.0310   -0.5691   -0.0312 C   0  0  0  0  0  0  0  0  0  0  0  0
   -1.3123   -0.9889   -0.6806 C   0  0  0  0  0  0  0  0  0  0  0  0
   -1.6797   -0.1610   -1.9132 C   0  0  0  0  0  0  0  0  0  0  0  0
   -1.2313   -2.4794   -1.0484 C   0  0  0  0  0  0  0  0  0  0  0  0
  1  2  1  0
  2  3  1  0
  4  3  1  6
  4  5  1  0
  5  6  1  0
  6  7  2  0
  7  8  1  0
  8  9  2  0
  9 10  1  0
 10 11  1  0
 11 12  1  0
 11 13  2  0
 11 14  2  0
  9 15  1  0
 15 16  2  0
 16 17  1  0
 17 18  1  0
 17 19  1  0
 17  4  1  0
 16  6  1  0
M  END
