
     RDKit          3D

 21 22  0  0  0  0  0  0  0  0999 V2000
   -3.9207    0.1352   -1.0397 C   0  0  0  0  0  0  0  0  0  0  0  0
   -2.5163    0.4919   -0.4831 C   0  0  0  0  0  0  0  0  0  0  0  0
   -2.1265    1.8411   -1.1177 C   0  0  0  0  0  0  0  0  0  0  0  0
   -2.6628    0.6894    1.0326 C   0  0  0  0  0  0  0  0  0  0  0  0
   -1.5504   -0.6930   -0.8367 C   0  0  1  0  0  0  0  0  0  0  0  0
   -1.4670   -0.8281   -2.2705 O   0  0  0  0  0  0  0  0  0  0  0  0
   -0.1069   -0.8059   -0.2603 C   0  0  1  0  0  0  0  0  0  0  0  0
    0.7384    0.4809   -0.3186 C   0  0  0  0  0  0  0  0  0  0  0  0
    2.2347    0.2280   -0.2401 C   0  0  0  0  0  0  0  0  0  0  0  0
    2.8809    0.3603    1.0008 C   0  0  0  0  0  0  0  0  0  0  0  0
    4.2514    0.1234    1.1218 C   0  0  0  0  0  0  0  0  0  0  0  0
    4.9908   -0.2473    0.0028 C   0  0  0  0  0  0  0  0  0  0  0  0
    6.6797   -0.5381    0.1531 Cl  0  0  0  0  0  0  0  0  0  0  0  0
    4.3736   -0.3855   -1.2368 C   0  0  0  0  0  0  0  0  0  0  0  0
    3.0018   -0.1500   -1.3572 C   0  0  0  0  0  0  0  0  0  0  0  0
    2.2928   -0.3413   -2.9223 Cl  0  0  0  0  0  0  0  0  0  0  0  0
   -0.0902   -1.4628    1.0418 N   0  0  0  0  0  0  0  0  0  0  0  0
   -0.0177   -2.8038    1.2783 C   0  0  0  0  0  0  0  0  0  0  0  0
   -0.0096   -3.0236    2.5722 N   0  0  0  0  0  0  0  0  0  0  0  0
   -0.0691   -1.7662    3.0968 C   0  0  0  0  0  0  0  0  0  0  0  0
   -0.1126   -0.7769    2.2005 N   0  0  0  0  0  0  0  0  0  0  0  0
  1  2  1  0
  2  3  1  0
  2  4  1  0
  2  5  1  0
  5  6  1  6
  5  7  1  0
  7  8  1  1
  8  9  1  0
  9 10  2  0
 10 11  1  0
 11 12  2  0
 12 13  1  0
 12 14  1  0
 14 15  2  0
 15 16  1  0
  7 17  1  0
 17 18  1  0
 18 19  2  0
 19 20  1  0
 20 21  2  0
 15  9  1  0
 21 17  1  0
M  END
