
     RDKit          3D

 26 27  0  0  0  0  0  0  0  0999 V2000
   -4.1616    3.2270    0.1247 N   0  0  0  0  0  0  0  0  0  0  0  0
   -3.3891    2.3663    0.2369 C   0  0  0  0  0  0  0  0  0  0  0  0
   -2.4200    1.3131    0.3532 C   0  0  0  0  0  0  0  0  0  0  0  0
   -1.1325    1.5975    0.1225 N   0  0  0  0  0  0  0  0  0  0  0  0
   -0.4768    0.4237    0.3033 N   0  0  0  0  0  0  0  0  0  0  0  0
    0.9299    0.3846    0.1699 C   0  0  0  0  0  0  0  0  0  0  0  0
    1.5325    0.8536   -1.0094 C   0  0  0  0  0  0  0  0  0  0  0  0
    0.6407    1.3505   -2.4080 Cl  0  0  0  0  0  0  0  0  0  0  0  0
    2.9278    0.8451   -1.1375 C   0  0  0  0  0  0  0  0  0  0  0  0
    3.7430    0.3704   -0.1019 C   0  0  0  0  0  0  0  0  0  0  0  0
    5.2472    0.3853   -0.2343 C   0  0  0  0  0  0  0  0  0  0  0  0
    5.6685    0.2799   -1.5235 F   0  0  0  0  0  0  0  0  0  0  0  0
    5.7943    1.5296    0.2535 F   0  0  0  0  0  0  0  0  0  0  0  0
    5.8426   -0.6370    0.4386 F   0  0  0  0  0  0  0  0  0  0  0  0
    3.1350   -0.0811    1.0775 C   0  0  0  0  0  0  0  0  0  0  0  0
    1.7407   -0.0744    1.2189 C   0  0  0  0  0  0  0  0  0  0  0  0
    1.1302   -0.5508    2.7663 Cl  0  0  0  0  0  0  0  0  0  0  0  0
   -1.3545   -0.6227    0.6147 C   0  0  0  0  0  0  0  0  0  0  0  0
   -0.9778   -1.9206    0.7665 N   0  0  0  0  0  0  0  0  0  0  0  0
   -2.6045   -0.0449    0.6527 C   0  0  0  0  0  0  0  0  0  0  0  0
   -4.1366   -0.8919    0.9836 S   0  0  0  0  0  4  0  0  0  0  0  0
   -5.1264    0.1619    1.3891 O   0  0  0  0  0  0  0  0  0  0  0  0
   -4.4589   -1.4446   -0.7148 C   0  0  0  0  0  0  0  0  0  0  0  0
   -3.5828   -2.4107   -1.0964 F   0  0  0  0  0  0  0  0  0  0  0  0
   -4.3605   -0.4386   -1.6197 F   0  0  0  0  0  0  0  0  0  0  0  0
   -5.6994   -1.9808   -0.8419 F   0  0  0  0  0  0  0  0  0  0  0  0
  1  2  3  0
  2  3  1  0
  3  4  2  0
  4  5  1  0
  5  6  1  0
  6  7  2  0
  7  8  1  0
  7  9  1  0
  9 10  2  0
 10 11  1  0
 11 12  1  0
 11 13  1  0
 11 14  1  0
 10 15  1  0
 15 16  2  0
 16 17  1  0
  5 18  1  0
 18 19  1  0
 18 20  2  0
 20 21  1  0
 21 22  2  0
 21 23  1  6
 23 24  1  0
 23 25  1  0
 23 26  1  0
 20  3  1  0
 16  6  1  0
M  END
