
     RDKit          3D

 20 21  0  0  0  0  0  0  0  0999 V2000
   -3.9463    1.9826   -0.8718 C   0  0  0  0  0  0  0  0  0  0  0  0
   -2.9085    1.8584    0.2354 C   0  0  0  0  0  0  0  0  0  0  0  0
   -2.2199    0.5633    0.2204 N   0  0  0  0  0  0  0  0  0  0  0  0
   -2.6074   -0.4087    1.2492 C   0  0  0  0  0  0  0  0  0  0  0  0
   -4.0470   -0.8820    1.1150 C   0  0  0  0  0  0  0  0  0  0  0  0
   -1.1758    0.4102   -0.7012 C   0  0  0  0  0  0  0  0  0  0  0  0
   -0.8920    1.3244   -1.4838 O   0  0  0  0  0  0  0  0  0  0  0  0
   -0.3974   -0.9262   -0.7386 C   0  0  1  0  0  0  0  0  0  0  0  0
   -1.2286   -1.9735   -1.4746 C   0  0  0  0  0  0  0  0  0  0  0  0
    0.8319   -0.7752   -1.4725 O   0  0  0  0  0  0  0  0  0  0  0  0
    1.9344   -0.9851   -0.6785 C   0  0  0  0  0  0  0  0  0  0  0  0
    2.2603   -2.2945   -0.3134 C   0  0  0  0  0  0  0  0  0  0  0  0
    3.3751   -2.5340    0.4830 C   0  0  0  0  0  0  0  0  0  0  0  0
    4.1725   -1.4685    0.9008 C   0  0  0  0  0  0  0  0  0  0  0  0
    3.8769   -0.1497    0.5158 C   0  0  0  0  0  0  0  0  0  0  0  0
    4.6936    0.9188    0.9224 C   0  0  0  0  0  0  0  0  0  0  0  0
    4.4117    2.2273    0.5278 C   0  0  0  0  0  0  0  0  0  0  0  0
    3.3116    2.4848   -0.2814 C   0  0  0  0  0  0  0  0  0  0  0  0
    2.4881    1.4347   -0.6905 C   0  0  0  0  0  0  0  0  0  0  0  0
    2.7470    0.1048   -0.2982 C   0  0  0  0  0  0  0  0  0  0  0  0
  1  2  1  0
  2  3  1  0
  3  4  1  0
  4  5  1  0
  3  6  1  0
  6  7  2  0
  6  8  1  0
  8  9  1  6
  8 10  1  0
 10 11  1  0
 11 12  2  0
 12 13  1  0
 13 14  2  0
 14 15  1  0
 15 16  2  0
 16 17  1  0
 17 18  2  0
 18 19  1  0
 19 20  2  0
 20 11  1  0
 20 15  1  0
M  END
