
     RDKit          3D

 18 19  0  0  0  0  0  0  0  0999 V2000
   -4.2028   -1.0975   -0.8500 C   0  0  0  0  0  0  0  0  0  0  0  0
   -2.9758   -0.6050   -1.0749 C   0  0  0  0  0  0  0  0  0  0  0  0
   -2.1350    0.2294   -0.1385 C   0  0  2  0  0  0  0  0  0  0  0  0
   -2.7895    0.6576    1.1740 C   0  0  0  0  0  0  0  0  0  0  0  0
   -1.7362    1.4017   -0.8428 O   0  0  0  0  0  0  0  0  0  0  0  0
   -0.3741    1.4871   -0.8416 C   0  0  0  0  0  0  0  0  0  0  0  0
    0.1769    2.4715   -1.3102 O   0  0  0  0  0  0  0  0  0  0  0  0
    0.1904    0.3847   -0.2639 N   0  0  0  0  0  0  0  0  0  0  0  0
    1.5957    0.1369   -0.1297 C   0  0  0  0  0  0  0  0  0  0  0  0
    2.5533    0.9329   -0.7834 C   0  0  0  0  0  0  0  0  0  0  0  0
    3.9253    0.6850   -0.6473 C   0  0  0  0  0  0  0  0  0  0  0  0
    5.0577    1.6835   -1.4757 Cl  0  0  0  0  0  0  0  0  0  0  0  0
    4.3862   -0.3574    0.1424 C   0  0  0  0  0  0  0  0  0  0  0  0
    3.4590   -1.1537    0.7972 C   0  0  0  0  0  0  0  0  0  0  0  0
    4.0069   -2.4494    1.7904 Cl  0  0  0  0  0  0  0  0  0  0  0  0
    2.0852   -0.9147    0.6657 C   0  0  0  0  0  0  0  0  0  0  0  0
   -0.8112   -0.4563    0.1518 C   0  0  0  0  0  0  0  0  0  0  0  0
   -0.7221   -1.5673    0.6596 O   0  0  0  0  0  0  0  0  0  0  0  0
  1  2  2  0
  2  3  1  0
  3  4  1  1
  3  5  1  0
  5  6  1  0
  6  7  2  0
  6  8  1  0
  8  9  1  0
  9 10  2  0
 10 11  1  0
 11 12  1  0
 11 13  2  0
 13 14  1  0
 14 15  1  0
 14 16  2  0
  8 17  1  0
 17 18  2  0
 17  3  1  0
 16  9  1  0
M  END
