
     RDKit          3D

 20 21  0  0  0  0  0  0  0  0999 V2000
   -0.8306   -1.8622   -0.1569 C   0  0  0  0  0  0  0  0  0  0  0  0
   -1.6360   -0.7919    0.5997 C   0  0  0  0  0  0  0  0  0  0  0  0
   -2.7549   -0.2880   -0.3320 C   0  0  0  0  0  0  0  0  0  0  0  0
   -2.3142   -1.4904    1.8021 C   0  0  0  0  0  0  0  0  0  0  0  0
   -0.7290    0.3860    1.1169 C   0  0  1  0  0  0  0  0  0  0  0  0
    0.2729   -0.1063    2.0088 O   0  0  0  0  0  0  0  0  0  0  0  0
   -0.0779    1.2860    0.0550 C   0  0  0  0  0  0  0  0  0  0  0  0
    1.1281    1.0644   -0.5348 C   0  0  0  0  0  0  0  0  0  0  0  0
    2.1065   -0.0144   -0.3525 C   0  0  0  0  0  0  0  0  0  0  0  0
    2.3219   -0.9294   -1.3911 C   0  0  0  0  0  0  0  0  0  0  0  0
    3.2834   -1.9353   -1.2615 C   0  0  0  0  0  0  0  0  0  0  0  0
    4.0467   -2.0156   -0.0990 C   0  0  0  0  0  0  0  0  0  0  0  0
    5.2293   -3.2547    0.0632 Cl  0  0  0  0  0  0  0  0  0  0  0  0
    3.8637   -1.0941    0.9290 C   0  0  0  0  0  0  0  0  0  0  0  0
    2.9017   -0.0891    0.7961 C   0  0  0  0  0  0  0  0  0  0  0  0
   -0.7857    2.4724   -0.3188 N   0  0  0  0  0  0  0  0  0  0  0  0
   -1.9690    2.9828    0.2078 C   0  0  0  0  0  0  0  0  0  0  0  0
   -2.3376    4.0913   -0.3878 N   0  0  0  0  0  0  0  0  0  0  0  0
   -1.3499    4.2769   -1.2932 C   0  0  0  0  0  0  0  0  0  0  0  0
   -0.3960    3.3515   -1.3003 N   0  0  0  0  0  0  0  0  0  0  0  0
  1  2  1  0
  2  3  1  0
  2  4  1  0
  2  5  1  0
  5  6  1  6
  5  7  1  0
  7  8  2  0
  8  9  1  0
  9 10  2  0
 10 11  1  0
 11 12  2  0
 12 13  1  0
 12 14  1  0
 14 15  2  0
  7 16  1  0
 16 17  1  0
 17 18  2  0
 18 19  1  0
 19 20  2  0
 15  9  1  0
 20 16  1  0
M  END
