
     RDKit          3D

 24 26  0  0  0  0  0  0  0  0999 V2000
   -5.0795   -1.3320    1.3404 C   0  0  0  0  0  0  0  0  0  0  0  0
   -3.6308   -1.1384    1.6930 C   0  0  0  0  0  0  0  0  0  0  0  0
   -3.3233   -1.2034    3.1642 C   0  0  0  0  0  0  0  0  0  0  0  0
   -2.6585   -0.9141    0.7860 C   0  0  0  0  0  0  0  0  0  0  0  0
   -2.8099   -0.8281   -0.6721 C   0  0  2  0  0  0  0  0  0  0  0  0
   -1.8933   -0.0025   -1.5475 C   0  0  2  0  0  0  0  0  0  0  0  0
   -0.7314    0.7909   -1.0672 C   0  0  0  0  0  0  0  0  0  0  0  0
   -0.6064    1.2175    0.0707 O   0  0  0  0  0  0  0  0  0  0  0  0
    0.1656    0.9712   -2.0708 O   0  0  0  0  0  0  0  0  0  0  0  0
    1.3288    1.7231   -1.7143 C   0  0  0  0  0  0  0  0  0  0  0  0
    2.2748    0.8967   -1.0157 N   0  0  0  0  0  0  0  0  0  0  0  0
    2.8303   -0.2329   -1.5249 C   0  0  0  0  0  0  0  0  0  0  0  0
    2.6095   -0.7895   -2.5844 O   0  0  0  0  0  0  0  0  0  0  0  0
    3.8311   -0.6783   -0.5525 C   0  0  0  0  0  0  0  0  0  0  0  0
    3.9097    0.2459    0.4064 C   0  0  0  0  0  0  0  0  0  0  0  0
    4.8193    0.1890    1.5741 C   0  0  0  0  0  0  0  0  0  0  0  0
    5.4337   -1.2155    1.7158 C   0  0  0  0  0  0  0  0  0  0  0  0
    5.8431   -1.8168    0.3609 C   0  0  0  0  0  0  0  0  0  0  0  0
    4.6643   -1.9010   -0.6263 C   0  0  0  0  0  0  0  0  0  0  0  0
    2.9596    1.3116    0.0821 C   0  0  0  0  0  0  0  0  0  0  0  0
    2.8893    2.3707    0.6765 O   0  0  0  0  0  0  0  0  0  0  0  0
   -3.3343    0.4417   -1.3302 C   0  0  0  0  0  0  0  0  0  0  0  0
   -3.6314    1.6723   -0.5037 C   0  0  0  0  0  0  0  0  0  0  0  0
   -4.2862    0.2743   -2.4915 C   0  0  0  0  0  0  0  0  0  0  0  0
  1  2  1  0
  2  3  1  0
  2  4  2  3
  5  4  1  1
  5  6  1  0
  6  7  1  1
  7  8  2  0
  7  9  1  0
  9 10  1  0
 10 11  1  0
 11 12  1  0
 12 13  2  0
 12 14  1  0
 14 15  2  0
 15 16  1  0
 16 17  1  0
 17 18  1  0
 18 19  1  0
 15 20  1  0
 20 21  2  0
  6 22  1  0
 22 23  1  0
 22 24  1  0
 22  5  1  0
 20 11  1  0
 19 14  1  0
M  END
