
     RDKit          3D

 26 27  0  0  0  0  0  0  0  0999 V2000
    3.2777   -0.9426    4.2399 N   0  0  0  0  0  0  0  0  0  0  0  0
    2.7593   -0.7977    3.2100 C   0  0  0  0  0  0  0  0  0  0  0  0
    2.0824   -0.6185    1.9557 C   0  0  0  0  0  0  0  0  0  0  0  0
    0.7468   -0.5302    1.9641 N   0  0  0  0  0  0  0  0  0  0  0  0
    0.3984   -0.3809    0.6636 N   0  0  0  0  0  0  0  0  0  0  0  0
   -0.9634   -0.2096    0.3255 C   0  0  0  0  0  0  0  0  0  0  0  0
   -1.3917    0.9203   -0.3877 C   0  0  0  0  0  0  0  0  0  0  0  0
   -0.3439    2.2172   -0.8509 Cl  0  0  0  0  0  0  0  0  0  0  0  0
   -2.7502    1.0869   -0.6888 C   0  0  0  0  0  0  0  0  0  0  0  0
   -3.7022    0.1462   -0.2720 C   0  0  0  0  0  0  0  0  0  0  0  0
   -5.1611    0.3242   -0.6183 C   0  0  0  0  0  0  0  0  0  0  0  0
   -5.5385    1.6309   -0.6553 F   0  0  0  0  0  0  0  0  0  0  0  0
   -5.4587   -0.1898   -1.8416 F   0  0  0  0  0  0  0  0  0  0  0  0
   -5.9980   -0.2849    0.2638 F   0  0  0  0  0  0  0  0  0  0  0  0
   -3.2668   -0.9786    0.4408 C   0  0  0  0  0  0  0  0  0  0  0  0
   -1.9109   -1.1578    0.7451 C   0  0  0  0  0  0  0  0  0  0  0  0
   -1.4944   -2.6411    1.5353 Cl  0  0  0  0  0  0  0  0  0  0  0  0
    1.5137   -0.4038   -0.1840 C   0  0  0  0  0  0  0  0  0  0  0  0
    1.4336   -0.3693   -1.5422 N   0  0  0  0  0  0  0  0  0  0  0  0
    2.6028   -0.5318    0.6536 C   0  0  0  0  0  0  0  0  0  0  0  0
    4.3159   -0.6626    0.1698 S   0  0  0  0  0  4  0  0  0  0  0  0
    5.1252   -0.6304    1.4339 O   0  0  0  0  0  0  0  0  0  0  0  0
    4.4622    0.9147   -0.7078 C   0  0  0  0  0  0  0  0  0  0  0  0
    3.9378    1.9572   -0.0157 F   0  0  0  0  0  0  0  0  0  0  0  0
    3.8216    0.8730   -1.9099 F   0  0  0  0  0  0  0  0  0  0  0  0
    5.7554    1.2245   -0.9808 F   0  0  0  0  0  0  0  0  0  0  0  0
  1  2  3  0
  2  3  1  0
  3  4  2  0
  4  5  1  0
  5  6  1  0
  6  7  2  0
  7  8  1  0
  7  9  1  0
  9 10  2  0
 10 11  1  0
 11 12  1  0
 11 13  1  0
 11 14  1  0
 10 15  1  0
 15 16  2  0
 16 17  1  0
  5 18  1  0
 18 19  1  0
 18 20  2  0
 20 21  1  0
 21 22  2  0
 21 23  1  6
 23 24  1  0
 23 25  1  0
 23 26  1  0
 20  3  1  0
 16  6  1  0
M  END
