
     RDKit          3D

 19 20  0  0  0  0  0  0  0  0999 V2000
   -0.4372   -2.2677   -0.9462 O   0  0  0  0  0  0  0  0  0  0  0  0
   -1.0792   -1.3574   -0.4428 C   0  0  0  0  0  0  0  0  0  0  0  0
   -2.5970   -1.3297   -0.3487 C   0  0  1  0  0  0  0  0  0  0  0  0
   -3.1998   -2.8977    0.2203 Cl  0  0  0  0  0  0  0  0  0  0  0  0
   -2.8854   -0.2020    0.6406 C   0  0  2  0  0  0  0  0  0  0  0  0
   -4.1861    0.5523    0.3900 C   0  0  0  0  0  0  0  0  0  0  0  0
   -5.6223   -0.4324    0.7258 Cl  0  0  0  0  0  0  0  0  0  0  0  0
   -1.6911    0.7233    0.4468 C   0  0  0  0  0  0  0  0  0  0  0  0
   -0.5982   -0.1397    0.0735 N   0  0  0  0  0  0  0  0  0  0  0  0
    0.7601    0.2858    0.1054 C   0  0  0  0  0  0  0  0  0  0  0  0
    1.0860    1.6147    0.4206 C   0  0  0  0  0  0  0  0  0  0  0  0
    2.4145    2.0508    0.4551 C   0  0  0  0  0  0  0  0  0  0  0  0
    3.4489    1.1630    0.1791 C   0  0  0  0  0  0  0  0  0  0  0  0
    3.1624   -0.1714   -0.1269 C   0  0  0  0  0  0  0  0  0  0  0  0
    4.2669   -1.1515   -0.4399 C   0  0  0  0  0  0  0  0  0  0  0  0
    4.1064   -2.3503    0.1851 F   0  0  0  0  0  0  0  0  0  0  0  0
    5.5010   -0.7055   -0.0689 F   0  0  0  0  0  0  0  0  0  0  0  0
    4.3572   -1.4261   -1.7700 F   0  0  0  0  0  0  0  0  0  0  0  0
    1.8183   -0.5931   -0.1644 C   0  0  0  0  0  0  0  0  0  0  0  0
  1  2  2  0
  2  3  1  0
  3  4  1  1
  3  5  1  0
  5  6  1  6
  6  7  1  0
  5  8  1  0
  8  9  1  0
  9 10  1  0
 10 11  2  0
 11 12  1  0
 12 13  2  0
 13 14  1  0
 14 15  1  0
 15 16  1  0
 15 17  1  0
 15 18  1  0
 14 19  2  0
  9  2  1  0
 19 10  1  0
M  END
