
     RDKit          3D

 18 20  0  0  0  0  0  0  0  0999 V2000
   -2.8828    1.4766    0.9067 C   0  0  0  0  0  0  0  0  0  0  0  0
   -1.9835    0.7108   -0.0198 C   0  0  2  0  0  0  0  0  0  0  0  0
   -2.6099   -0.0746   -1.1562 C   0  0  0  0  0  0  0  0  0  0  0  0
   -1.9489   -0.8144   -0.0090 C   0  0  2  0  0  0  0  0  0  0  0  0
   -2.8159   -1.6054    0.9281 C   0  0  0  0  0  0  0  0  0  0  0  0
   -0.4895   -1.1613   -0.1111 C   0  0  0  0  0  0  0  0  0  0  0  0
   -0.1463   -2.3311   -0.1379 O   0  0  0  0  0  0  0  0  0  0  0  0
    0.2637    0.0007   -0.1447 N   0  0  0  0  0  0  0  0  0  0  0  0
    1.6975    0.0379   -0.2256 C   0  0  0  0  0  0  0  0  0  0  0  0
    2.4553   -1.1184   -0.4826 C   0  0  0  0  0  0  0  0  0  0  0  0
    3.8532   -1.0743   -0.5574 C   0  0  0  0  0  0  0  0  0  0  0  0
    4.7350   -2.5171   -0.8844 Cl  0  0  0  0  0  0  0  0  0  0  0  0
    4.5393    0.1169   -0.3757 C   0  0  0  0  0  0  0  0  0  0  0  0
    3.8118    1.2686   -0.1171 C   0  0  0  0  0  0  0  0  0  0  0  0
    4.6421    2.7582    0.1231 Cl  0  0  0  0  0  0  0  0  0  0  0  0
    2.4138    1.2345   -0.0423 C   0  0  0  0  0  0  0  0  0  0  0  0
   -0.5445    1.1255   -0.1400 C   0  0  0  0  0  0  0  0  0  0  0  0
   -0.2613    2.3064   -0.2507 O   0  0  0  0  0  0  0  0  0  0  0  0
  2  1  1  1
  2  3  1  0
  3  4  1  0
  4  5  1  1
  4  6  1  0
  6  7  2  0
  6  8  1  0
  8  9  1  0
  9 10  2  0
 10 11  1  0
 11 12  1  0
 11 13  2  0
 13 14  1  0
 14 15  1  0
 14 16  2  0
  8 17  1  0
 17 18  2  0
  4  2  1  0
 16  9  1  0
 17  2  1  0
M  END
