
     RDKit          3D

 25 27  0  0  0  0  0  0  0  0999 V2000
   -3.9975    0.3940    3.6037 C   0  0  0  0  0  0  0  0  0  0  0  0
   -3.4510    0.8007    2.2135 C   0  0  0  0  0  0  0  0  0  0  0  0
   -4.6690    1.0896    1.3182 C   0  0  0  0  0  0  0  0  0  0  0  0
   -2.6490    2.1046    2.3845 C   0  0  0  0  0  0  0  0  0  0  0  0
   -2.5296   -0.3542    1.6909 C   0  0  1  0  0  0  0  0  0  0  0  0
   -3.2601   -1.5926    1.6006 O   0  0  0  0  0  0  0  0  0  0  0  0
   -1.6578   -0.1014    0.4202 C   0  0  1  0  0  0  0  0  0  0  0  0
   -0.6879   -1.1700    0.3471 O   0  0  0  0  0  0  0  0  0  0  0  0
    0.5494   -0.8999   -0.1648 C   0  0  0  0  0  0  0  0  0  0  0  0
    0.8909    0.1831   -0.9707 C   0  0  0  0  0  0  0  0  0  0  0  0
    2.2047    0.3255   -1.4373 C   0  0  0  0  0  0  0  0  0  0  0  0
    3.2007   -0.6102   -1.1164 C   0  0  0  0  0  0  0  0  0  0  0  0
    4.5787   -0.4547   -1.6102 C   0  0  0  0  0  0  0  0  0  0  0  0
    4.8423   -0.2811   -2.9793 C   0  0  0  0  0  0  0  0  0  0  0  0
    6.1504   -0.1337   -3.4489 C   0  0  0  0  0  0  0  0  0  0  0  0
    7.2185   -0.1565   -2.5559 C   0  0  0  0  0  0  0  0  0  0  0  0
    6.9798   -0.3272   -1.1948 C   0  0  0  0  0  0  0  0  0  0  0  0
    5.6712   -0.4755   -0.7270 C   0  0  0  0  0  0  0  0  0  0  0  0
    2.8366   -1.7019   -0.3156 C   0  0  0  0  0  0  0  0  0  0  0  0
    1.5255   -1.8465    0.1489 C   0  0  0  0  0  0  0  0  0  0  0  0
   -2.4131   -0.0824   -0.8191 N   0  0  0  0  0  0  0  0  0  0  0  0
   -2.9403   -1.1404   -1.4964 C   0  0  0  0  0  0  0  0  0  0  0  0
   -3.5470   -0.7127   -2.5792 N   0  0  0  0  0  0  0  0  0  0  0  0
   -3.3159    0.6319   -2.5510 C   0  0  0  0  0  0  0  0  0  0  0  0
   -2.6206    1.0696   -1.4973 N   0  0  0  0  0  0  0  0  0  0  0  0
  1  2  1  0
  2  3  1  0
  2  4  1  0
  2  5  1  0
  5  6  1  6
  5  7  1  0
  7  8  1  6
  8  9  1  0
  9 10  2  0
 10 11  1  0
 11 12  2  0
 12 13  1  0
 13 14  2  0
 14 15  1  0
 15 16  2  0
 16 17  1  0
 17 18  2  0
 12 19  1  0
 19 20  2  0
  7 21  1  0
 21 22  1  0
 22 23  2  0
 23 24  1  0
 24 25  2  0
 20  9  1  0
 25 21  1  0
 18 13  1  0
M  END
