
     RDKit          3D

 19 20  0  0  0  0  0  0  0  0999 V2000
   -0.8499    2.2994    0.9883 O   0  0  0  0  0  0  0  0  0  0  0  0
   -1.3777    1.2087    0.8384 C   0  0  0  0  0  0  0  0  0  0  0  0
   -2.8692    0.9443    0.9514 C   0  0  1  0  0  0  0  0  0  0  0  0
   -3.8370    2.2936    0.3499 Cl  0  0  0  0  0  0  0  0  0  0  0  0
   -3.0579   -0.3780    0.2026 C   0  0  1  0  0  0  0  0  0  0  0  0
   -3.2322   -0.2306   -1.3154 C   0  0  0  0  0  0  0  0  0  0  0  0
   -3.4669   -1.8214   -2.0943 Cl  0  0  0  0  0  0  0  0  0  0  0  0
   -1.7550   -1.0930    0.5586 C   0  0  0  0  0  0  0  0  0  0  0  0
   -0.7622   -0.0397    0.6100 N   0  0  0  0  0  0  0  0  0  0  0  0
    0.6367   -0.2952    0.5559 C   0  0  0  0  0  0  0  0  0  0  0  0
    1.1247   -1.6115    0.5552 C   0  0  0  0  0  0  0  0  0  0  0  0
    2.4963   -1.8803    0.5037 C   0  0  0  0  0  0  0  0  0  0  0  0
    3.4121   -0.8351    0.4487 C   0  0  0  0  0  0  0  0  0  0  0  0
    2.9618    0.4890    0.4391 C   0  0  0  0  0  0  0  0  0  0  0  0
    3.9356    1.6412    0.3913 C   0  0  0  0  0  0  0  0  0  0  0  0
    5.1980    1.2641    0.0402 F   0  0  0  0  0  0  0  0  0  0  0  0
    3.5766    2.6020   -0.5042 F   0  0  0  0  0  0  0  0  0  0  0  0
    4.0574    2.2695    1.5926 F   0  0  0  0  0  0  0  0  0  0  0  0
    1.5768    0.7430    0.4982 C   0  0  0  0  0  0  0  0  0  0  0  0
  1  2  2  0
  2  3  1  0
  3  4  1  6
  3  5  1  0
  5  6  1  6
  6  7  1  0
  5  8  1  0
  8  9  1  0
  9 10  1  0
 10 11  2  0
 11 12  1  0
 12 13  2  0
 13 14  1  0
 14 15  1  0
 15 16  1  0
 15 17  1  0
 15 18  1  0
 14 19  2  0
  9  2  1  0
 19 10  1  0
M  END
