
     RDKit          3D

 21 21  0  0  0  0  0  0  0  0999 V2000
   -0.0604    4.4192    0.8159 C   0  0  0  0  0  0  0  0  0  0  0  0
    0.6423    3.0937    0.6045 C   0  0  0  0  0  0  0  0  0  0  0  0
    0.1645    2.1629    1.5634 O   0  0  0  0  0  0  0  0  0  0  0  0
    0.5522    0.5965    1.4268 P   0  0  2  0  0  5  0  0  0  0  0  0
    0.2816   -0.3638    3.0945 S   0  0  0  0  0  0  0  0  0  0  0  0
    2.1217    0.5945    0.9027 N   0  0  0  0  0  0  0  0  0  0  0  0
    2.6394   -0.5697    0.1774 C   0  0  2  0  0  0  0  0  0  0  0  0
    4.0906   -0.8210    0.5986 C   0  0  0  0  0  0  0  0  0  0  0  0
    2.5188   -0.3091   -1.3341 C   0  0  0  0  0  0  0  0  0  0  0  0
    2.9040   -1.5111   -2.1861 C   0  0  0  0  0  0  0  0  0  0  0  0
   -0.3455    0.1491    0.1462 O   0  0  0  0  0  0  0  0  0  0  0  0
   -1.6078   -0.3607    0.2719 C   0  0  0  0  0  0  0  0  0  0  0  0
   -1.7298   -1.7350    0.5005 C   0  0  0  0  0  0  0  0  0  0  0  0
   -2.9926   -2.3295    0.6463 C   0  0  0  0  0  0  0  0  0  0  0  0
   -3.1062   -3.7945    0.9552 C   0  0  0  0  0  0  0  0  0  0  0  0
   -4.1416   -1.5326    0.5655 C   0  0  0  0  0  0  0  0  0  0  0  0
   -4.0341   -0.1673    0.2990 C   0  0  0  0  0  0  0  0  0  0  0  0
   -2.7652    0.4056    0.1367 C   0  0  0  0  0  0  0  0  0  0  0  0
   -2.6996    1.8094   -0.2211 N   0  0  0  0  0  4  0  0  0  0  0  0
   -1.9636    2.1269   -1.1652 O   0  0  0  0  0  0  0  0  0  0  0  0
   -3.4169    2.5910    0.4185 O   0  0  0  0  0  1  0  0  0  0  0  0
  1  2  1  0
  2  3  1  0
  3  4  1  0
  4  5  2  0
  4  6  1  6
  6  7  1  0
  7  8  1  6
  7  9  1  0
  9 10  1  0
  4 11  1  0
 11 12  1  0
 12 13  2  0
 13 14  1  0
 14 15  1  0
 14 16  2  0
 16 17  1  0
 17 18  2  0
 18 19  1  0
 19 20  2  0
 19 21  1  0
 18 12  1  0
M  CHG  2  19   1  21  -1
M  END
