
     RDKit          3D

 24 26  0  0  0  0  0  0  0  0999 V2000
   -0.8420    2.4384    2.0393 N   0  0  0  0  0  0  0  0  0  0  0  0
   -0.8349    1.5597    1.2802 C   0  0  0  0  0  0  0  0  0  0  0  0
   -0.7517    0.4192    0.3254 C   0  0  2  0  0  0  0  0  0  0  0  0
    0.7753    0.1091    0.1293 C   0  0  0  0  0  0  0  0  0  0  0  0
    1.6456    1.2854   -0.3513 C   0  0  0  0  0  0  0  0  0  0  0  0
    3.0915    0.8685   -0.4859 C   0  0  0  0  0  0  0  0  0  0  0  0
    3.9468    0.9191    0.6243 C   0  0  0  0  0  0  0  0  0  0  0  0
    5.2789    0.5157    0.5098 C   0  0  0  0  0  0  0  0  0  0  0  0
    5.7602    0.0572   -0.7141 C   0  0  0  0  0  0  0  0  0  0  0  0
    7.4006   -0.4419   -0.8557 Cl  0  0  0  0  0  0  0  0  0  0  0  0
    4.9209   -0.0017   -1.8245 C   0  0  0  0  0  0  0  0  0  0  0  0
    3.5883    0.4014   -1.7108 C   0  0  0  0  0  0  0  0  0  0  0  0
   -1.3860    0.8278   -1.0283 C   0  0  0  0  0  0  0  0  0  0  0  0
   -2.8069    1.1076   -0.9768 N   0  0  0  0  0  0  0  0  0  0  0  0
   -3.8442    0.2664   -1.2316 C   0  0  0  0  0  0  0  0  0  0  0  0
   -4.9751    0.9269   -1.1366 N   0  0  0  0  0  0  0  0  0  0  0  0
   -4.5666    2.1924   -0.8261 C   0  0  0  0  0  0  0  0  0  0  0  0
   -3.2439    2.3540   -0.7358 N   0  0  0  0  0  0  0  0  0  0  0  0
   -1.4558   -0.8577    0.8584 C   0  0  0  0  0  0  0  0  0  0  0  0
   -1.2859   -2.1005    0.2123 C   0  0  0  0  0  0  0  0  0  0  0  0
   -1.9431   -3.2493    0.6615 C   0  0  0  0  0  0  0  0  0  0  0  0
   -2.7931   -3.1834    1.7591 C   0  0  0  0  0  0  0  0  0  0  0  0
   -2.9893   -1.9687    2.4059 C   0  0  0  0  0  0  0  0  0  0  0  0
   -2.3321   -0.8180    1.9607 C   0  0  0  0  0  0  0  0  0  0  0  0
  1  2  3  0
  3  2  1  1
  3  4  1  0
  4  5  1  0
  5  6  1  0
  6  7  2  0
  7  8  1  0
  8  9  2  0
  9 10  1  0
  9 11  1  0
 11 12  2  0
  3 13  1  0
 13 14  1  0
 14 15  1  0
 15 16  2  0
 16 17  1  0
 17 18  2  0
  3 19  1  0
 19 20  2  0
 20 21  1  0
 21 22  2  0
 22 23  1  0
 23 24  2  0
 12  6  1  0
 18 14  1  0
 24 19  1  0
M  END
