
     RDKit          3D

 21 22  0  0  0  0  0  0  0  0999 V2000
   -2.0676    2.3111   -0.4263 C   0  0  0  0  0  0  0  0  0  0  0  0
   -2.5890    0.8674   -0.3597 C   0  0  0  0  0  0  0  0  0  0  0  0
   -4.0390    0.9263    0.1803 C   0  0  0  0  0  0  0  0  0  0  0  0
   -2.6437    0.2902   -1.7867 C   0  0  0  0  0  0  0  0  0  0  0  0
   -1.7452   -0.0532    0.5837 C   0  0  2  0  0  0  0  0  0  0  0  0
   -1.8005    0.4637    1.9214 O   0  0  0  0  0  0  0  0  0  0  0  0
   -0.2659   -0.3362    0.1869 C   0  0  1  0  0  0  0  0  0  0  0  0
    0.7456    0.7308    0.6628 C   0  0  0  0  0  0  0  0  0  0  0  0
    2.1630    0.4953    0.1659 C   0  0  0  0  0  0  0  0  0  0  0  0
    3.0963   -0.0785    1.0480 C   0  0  0  0  0  0  0  0  0  0  0  0
    4.4070   -0.3303    0.6388 C   0  0  0  0  0  0  0  0  0  0  0  0
    4.8000   -0.0093   -0.6565 C   0  0  0  0  0  0  0  0  0  0  0  0
    6.4150   -0.3194   -1.1610 Cl  0  0  0  0  0  0  0  0  0  0  0  0
    3.8946    0.5583   -1.5478 C   0  0  0  0  0  0  0  0  0  0  0  0
    2.5819    0.8080   -1.1390 C   0  0  0  0  0  0  0  0  0  0  0  0
    1.5070    1.5012   -2.2989 Cl  0  0  0  0  0  0  0  0  0  0  0  0
    0.1132   -1.6456    0.7387 N   0  0  0  0  0  0  0  0  0  0  0  0
    0.5929   -2.7266    0.0671 C   0  0  0  0  0  0  0  0  0  0  0  0
    0.7955   -3.7105    0.9123 N   0  0  0  0  0  0  0  0  0  0  0  0
    0.4187   -3.1743    2.1101 C   0  0  0  0  0  0  0  0  0  0  0  0
   -0.0094   -1.9091    2.0586 N   0  0  0  0  0  0  0  0  0  0  0  0
  1  2  1  0
  2  3  1  0
  2  4  1  0
  2  5  1  0
  5  6  1  1
  5  7  1  0
  7  8  1  1
  8  9  1  0
  9 10  2  0
 10 11  1  0
 11 12  2  0
 12 13  1  0
 12 14  1  0
 14 15  2  0
 15 16  1  0
  7 17  1  0
 17 18  1  0
 18 19  2  0
 19 20  1  0
 20 21  2  0
 15  9  1  0
 21 17  1  0
M  END
