
     RDKit          3D

 27 29  0  0  0  0  0  0  0  0999 V2000
   -3.2313   -1.7712   -0.2633 C   0  0  0  0  0  0  0  0  0  0  0  0
   -2.6209   -0.8845    0.8439 C   0  0  2  0  0  0  0  0  0  0  0  0
   -3.1025   -1.4986    2.0526 O   0  0  0  0  0  0  0  0  0  0  0  0
   -3.2061    0.5504    0.7949 C   0  0  0  0  0  0  0  0  0  0  0  0
   -3.1945    1.1828   -0.5036 N   0  0  0  0  0  0  0  0  0  0  0  0
   -4.2525    1.3916   -1.3337 C   0  0  0  0  0  0  0  0  0  0  0  0
   -3.8443    2.0116   -2.4165 N   0  0  0  0  0  0  0  0  0  0  0  0
   -2.5105    2.1878   -2.1845 C   0  0  0  0  0  0  0  0  0  0  0  0
   -2.0659    1.6964   -1.0250 N   0  0  0  0  0  0  0  0  0  0  0  0
   -1.0819   -0.8878    0.8825 C   0  0  0  0  0  0  0  0  0  0  0  0
   -0.3657   -1.0613   -0.3246 C   0  0  0  0  0  0  0  0  0  0  0  0
    1.0302   -1.0622   -0.3673 C   0  0  0  0  0  0  0  0  0  0  0  0
    1.7540   -0.8650    0.7991 C   0  0  0  0  0  0  0  0  0  0  0  0
    3.1278   -0.8817    0.8344 O   0  0  0  0  0  0  0  0  0  0  0  0
    3.7958   -0.0960   -0.0781 C   0  0  0  0  0  0  0  0  0  0  0  0
    4.9320   -0.6514   -0.6699 C   0  0  0  0  0  0  0  0  0  0  0  0
    5.6801    0.0968   -1.5811 C   0  0  0  0  0  0  0  0  0  0  0  0
    5.2956    1.4026   -1.8840 C   0  0  0  0  0  0  0  0  0  0  0  0
    6.2169    2.3247   -3.0070 Cl  0  0  0  0  0  0  0  0  0  0  0  0
    4.1741    1.9690   -1.2786 C   0  0  0  0  0  0  0  0  0  0  0  0
    3.4256    1.2214   -0.3664 C   0  0  0  0  0  0  0  0  0  0  0  0
    1.0860   -0.7048    2.0086 C   0  0  0  0  0  0  0  0  0  0  0  0
   -0.3270   -0.6905    2.0757 C   0  0  0  0  0  0  0  0  0  0  0  0
   -0.9380   -0.4943    3.4550 C   0  0  0  0  0  0  0  0  0  0  0  0
   -1.9548    0.4082    3.4893 F   0  0  0  0  0  0  0  0  0  0  0  0
   -1.4158   -1.6578    3.9797 F   0  0  0  0  0  0  0  0  0  0  0  0
   -0.0363   -0.0363    4.3745 F   0  0  0  0  0  0  0  0  0  0  0  0
  2  1  1  6
  2  3  1  0
  2  4  1  0
  4  5  1  0
  5  6  1  0
  6  7  2  0
  7  8  1  0
  8  9  2  0
  2 10  1  0
 10 11  2  0
 11 12  1  0
 12 13  2  0
 13 14  1  0
 14 15  1  0
 15 16  2  0
 16 17  1  0
 17 18  2  0
 18 19  1  0
 18 20  1  0
 20 21  2  0
 13 22  1  0
 22 23  2  0
 23 24  1  0
 24 25  1  0
 24 26  1  0
 24 27  1  0
  9  5  1  0
 23 10  1  0
 21 15  1  0
M  END
