
     RDKit          3D

 27 29  0  0  0  0  0  0  0  0999 V2000
   -2.5078   -0.3478   -1.9976 C   0  0  0  0  0  0  0  0  0  0  0  0
   -2.4990   -0.9497   -0.5769 C   0  0  2  0  0  0  0  0  0  0  0  0
   -2.7922   -2.3596   -0.6659 O   0  0  0  0  0  0  0  0  0  0  0  0
   -3.7363   -0.3868    0.1976 C   0  0  0  0  0  0  0  0  0  0  0  0
   -3.9868    1.0316    0.0789 N   0  0  0  0  0  0  0  0  0  0  0  0
   -5.0133    1.6343   -0.5841 C   0  0  0  0  0  0  0  0  0  0  0  0
   -4.9159    2.9369   -0.4560 N   0  0  0  0  0  0  0  0  0  0  0  0
   -3.8063    3.0850    0.3241 C   0  0  0  0  0  0  0  0  0  0  0  0
   -3.2072    1.9462    0.6812 N   0  0  0  0  0  0  0  0  0  0  0  0
   -1.1161   -0.8505    0.1115 C   0  0  0  0  0  0  0  0  0  0  0  0
   -1.0095   -0.2421    1.3851 C   0  0  0  0  0  0  0  0  0  0  0  0
    0.2068   -0.1027    2.0617 C   0  0  0  0  0  0  0  0  0  0  0  0
    1.3742   -0.5610    1.4827 C   0  0  0  0  0  0  0  0  0  0  0  0
    2.5400   -0.4179    2.1948 O   0  0  0  0  0  0  0  0  0  0  0  0
    3.6203    0.1143    1.5278 C   0  0  0  0  0  0  0  0  0  0  0  0
    3.5307    1.2692    0.7447 C   0  0  0  0  0  0  0  0  0  0  0  0
    4.6742    1.7747    0.1220 C   0  0  0  0  0  0  0  0  0  0  0  0
    5.9002    1.1334    0.2984 C   0  0  0  0  0  0  0  0  0  0  0  0
    7.3080    1.7576   -0.4688 Cl  0  0  0  0  0  0  0  0  0  0  0  0
    5.9955   -0.0056    1.0978 C   0  0  0  0  0  0  0  0  0  0  0  0
    4.8530   -0.5118    1.7206 C   0  0  0  0  0  0  0  0  0  0  0  0
    1.3175   -1.2085    0.2539 C   0  0  0  0  0  0  0  0  0  0  0  0
    0.0925   -1.3751   -0.4432 C   0  0  0  0  0  0  0  0  0  0  0  0
    0.2111   -2.0972   -1.7717 C   0  0  0  0  0  0  0  0  0  0  0  0
    0.3793   -1.2347   -2.8117 F   0  0  0  0  0  0  0  0  0  0  0  0
   -0.8683   -2.8657   -2.0924 F   0  0  0  0  0  0  0  0  0  0  0  0
    1.2747   -2.9500   -1.8308 F   0  0  0  0  0  0  0  0  0  0  0  0
  2  1  1  6
  2  3  1  0
  2  4  1  0
  4  5  1  0
  5  6  1  0
  6  7  2  0
  7  8  1  0
  8  9  2  0
  2 10  1  0
 10 11  2  0
 11 12  1  0
 12 13  2  0
 13 14  1  0
 14 15  1  0
 15 16  2  0
 16 17  1  0
 17 18  2  0
 18 19  1  0
 18 20  1  0
 20 21  2  0
 13 22  1  0
 22 23  2  0
 23 24  1  0
 24 25  1  0
 24 26  1  0
 24 27  1  0
  9  5  1  0
 23 10  1  0
 21 15  1  0
M  END
