
     RDKit          3D

 27 29  0  0  0  0  0  0  0  0999 V2000
    2.8724   -1.9853    1.1844 C   0  0  0  0  0  0  0  0  0  0  0  0
    2.2562   -0.5911    1.4254 C   0  0  1  0  0  0  0  0  0  0  0  0
    1.7985   -0.6429    2.7864 O   0  0  0  0  0  0  0  0  0  0  0  0
    3.3146    0.5329    1.3123 C   0  0  0  0  0  0  0  0  0  0  0  0
    3.9348    0.6679    0.0166 N   0  0  0  0  0  0  0  0  0  0  0  0
    3.6067    1.5310   -0.9818 C   0  0  0  0  0  0  0  0  0  0  0  0
    4.4340    1.3689   -1.9884 N   0  0  0  0  0  0  0  0  0  0  0  0
    5.2788    0.3952   -1.5391 C   0  0  0  0  0  0  0  0  0  0  0  0
    5.0142   -0.0651   -0.3131 N   0  0  0  0  0  0  0  0  0  0  0  0
    1.0224   -0.3023    0.5490 C   0  0  0  0  0  0  0  0  0  0  0  0
    0.9947   -0.8043   -0.7744 C   0  0  0  0  0  0  0  0  0  0  0  0
   -0.0903   -0.5907   -1.6264 C   0  0  0  0  0  0  0  0  0  0  0  0
   -1.1906    0.1193   -1.1762 C   0  0  0  0  0  0  0  0  0  0  0  0
   -2.2208    0.3191   -2.0640 O   0  0  0  0  0  0  0  0  0  0  0  0
   -3.4987    0.0793   -1.6122 C   0  0  0  0  0  0  0  0  0  0  0  0
   -3.8475   -1.0759   -0.9060 C   0  0  0  0  0  0  0  0  0  0  0  0
   -5.1718   -1.2713   -0.5074 C   0  0  0  0  0  0  0  0  0  0  0  0
   -6.1404   -0.3209   -0.8304 C   0  0  0  0  0  0  0  0  0  0  0  0
   -7.7714   -0.5639   -0.3399 Cl  0  0  0  0  0  0  0  0  0  0  0  0
   -5.7984    0.8209   -1.5546 C   0  0  0  0  0  0  0  0  0  0  0  0
   -4.4748    1.0173   -1.9532 C   0  0  0  0  0  0  0  0  0  0  0  0
   -1.1836    0.6661    0.1053 C   0  0  0  0  0  0  0  0  0  0  0  0
   -0.0884    0.4784    0.9827 C   0  0  0  0  0  0  0  0  0  0  0  0
   -0.2006    1.1374    2.3515 C   0  0  0  0  0  0  0  0  0  0  0  0
   -0.5723    0.2858    3.3445 F   0  0  0  0  0  0  0  0  0  0  0  0
   -1.1461    2.1286    2.3700 F   0  0  0  0  0  0  0  0  0  0  0  0
    0.9408    1.7646    2.7548 F   0  0  0  0  0  0  0  0  0  0  0  0
  2  1  1  6
  2  3  1  0
  2  4  1  0
  4  5  1  0
  5  6  1  0
  6  7  2  0
  7  8  1  0
  8  9  2  0
  2 10  1  0
 10 11  2  0
 11 12  1  0
 12 13  2  0
 13 14  1  0
 14 15  1  0
 15 16  2  0
 16 17  1  0
 17 18  2  0
 18 19  1  0
 18 20  1  0
 20 21  2  0
 13 22  1  0
 22 23  2  0
 23 24  1  0
 24 25  1  0
 24 26  1  0
 24 27  1  0
  9  5  1  0
 23 10  1  0
 21 15  1  0
M  END
