
     RDKit          3D

 25 27  0  0  0  0  0  0  0  0999 V2000
   -4.5101   -0.8595    1.3125 C   0  0  0  0  0  0  0  0  0  0  0  0
   -3.9146   -1.1539   -0.0740 C   0  0  0  0  0  0  0  0  0  0  0  0
   -5.0976   -1.3685   -1.0488 C   0  0  0  0  0  0  0  0  0  0  0  0
   -3.1236   -2.4748    0.0003 C   0  0  0  0  0  0  0  0  0  0  0  0
   -3.0280    0.0212   -0.6074 C   0  0  2  0  0  0  0  0  0  0  0  0
   -2.6211   -0.3196   -1.9572 O   0  0  0  0  0  0  0  0  0  0  0  0
   -1.7470    0.3757    0.1995 C   0  0  1  0  0  0  0  0  0  0  0  0
   -0.9693    1.2935   -0.6174 O   0  0  0  0  0  0  0  0  0  0  0  0
    0.3680    1.0128   -0.5780 C   0  0  0  0  0  0  0  0  0  0  0  0
    0.8877   -0.1104   -1.2153 C   0  0  0  0  0  0  0  0  0  0  0  0
    2.2636   -0.3511   -1.1726 C   0  0  0  0  0  0  0  0  0  0  0  0
    3.1353    0.5313   -0.5101 C   0  0  0  0  0  0  0  0  0  0  0  0
    4.5848    0.2754   -0.4687 C   0  0  0  0  0  0  0  0  0  0  0  0
    5.0910   -0.9525   -0.0100 C   0  0  0  0  0  0  0  0  0  0  0  0
    6.4668   -1.1957    0.0303 C   0  0  0  0  0  0  0  0  0  0  0  0
    7.3609   -0.2140   -0.3889 C   0  0  0  0  0  0  0  0  0  0  0  0
    6.8808    1.0097   -0.8481 C   0  0  0  0  0  0  0  0  0  0  0  0
    5.5048    1.2515   -0.8870 C   0  0  0  0  0  0  0  0  0  0  0  0
    2.5836    1.6707    0.1017 C   0  0  0  0  0  0  0  0  0  0  0  0
    1.2090    1.9167    0.0610 C   0  0  0  0  0  0  0  0  0  0  0  0
   -1.9903    1.0397    1.4687 N   0  0  0  0  0  0  0  0  0  0  0  0
   -1.3637    0.7893    2.6531 C   0  0  0  0  0  0  0  0  0  0  0  0
   -1.8237    1.6021    3.5755 N   0  0  0  0  0  0  0  0  0  0  0  0
   -2.7277    2.3637    2.8918 C   0  0  0  0  0  0  0  0  0  0  0  0
   -2.8663    2.0602    1.5987 N   0  0  0  0  0  0  0  0  0  0  0  0
  1  2  1  0
  2  3  1  0
  2  4  1  0
  2  5  1  0
  5  6  1  6
  5  7  1  0
  7  8  1  6
  8  9  1  0
  9 10  2  0
 10 11  1  0
 11 12  2  0
 12 13  1  0
 13 14  2  0
 14 15  1  0
 15 16  2  0
 16 17  1  0
 17 18  2  0
 12 19  1  0
 19 20  2  0
  7 21  1  0
 21 22  1  0
 22 23  2  0
 23 24  1  0
 24 25  2  0
 20  9  1  0
 25 21  1  0
 18 13  1  0
M  END
