
     RDKit          3D

 24 26  0  0  0  0  0  0  0  0999 V2000
    5.0994    3.4450   -0.5977 C   0  0  0  0  0  0  0  0  0  0  0  0
    4.6498    2.1462    0.0131 C   0  0  0  0  0  0  0  0  0  0  0  0
    5.6970    1.4298    0.8203 C   0  0  0  0  0  0  0  0  0  0  0  0
    3.3966    1.6844   -0.1657 C   0  0  0  0  0  0  0  0  0  0  0  0
    2.8241    0.4416    0.3725 C   0  0  1  0  0  0  0  0  0  0  0  0
    1.7240   -0.2563   -0.4024 C   0  0  2  0  0  0  0  0  0  0  0  0
    0.5600   -0.8426    0.3013 C   0  0  0  0  0  0  0  0  0  0  0  0
    0.2405   -0.5223    1.4354 O   0  0  0  0  0  0  0  0  0  0  0  0
   -0.0659   -1.7533   -0.4810 O   0  0  0  0  0  0  0  0  0  0  0  0
   -1.1970   -2.3865    0.1208 C   0  0  0  0  0  0  0  0  0  0  0  0
   -2.3551   -1.5384    0.0520 N   0  0  0  0  0  0  0  0  0  0  0  0
   -2.8905   -1.0612   -1.1013 C   0  0  0  0  0  0  0  0  0  0  0  0
   -2.4883   -1.1792   -2.2438 O   0  0  0  0  0  0  0  0  0  0  0  0
   -4.1300   -0.3746   -0.7310 C   0  0  0  0  0  0  0  0  0  0  0  0
   -4.3342   -0.5739    0.5727 C   0  0  0  0  0  0  0  0  0  0  0  0
   -5.4911   -0.0626    1.3433 C   0  0  0  0  0  0  0  0  0  0  0  0
   -6.2596    0.9938    0.5291 C   0  0  0  0  0  0  0  0  0  0  0  0
   -6.4039    0.6034   -0.9516 C   0  0  0  0  0  0  0  0  0  0  0  0
   -5.0438    0.3645   -1.6326 C   0  0  0  0  0  0  0  0  0  0  0  0
   -3.2307   -1.3905    1.0807 C   0  0  0  0  0  0  0  0  0  0  0  0
   -3.1921   -1.8725    2.1973 O   0  0  0  0  0  0  0  0  0  0  0  0
    3.1028   -0.8946   -0.2963 C   0  0  0  0  0  0  0  0  0  0  0  0
    3.9195   -0.9689   -1.5647 C   0  0  0  0  0  0  0  0  0  0  0  0
    3.3104   -2.0810    0.6144 C   0  0  0  0  0  0  0  0  0  0  0  0
  1  2  1  0
  2  3  1  0
  2  4  2  3
  5  4  1  6
  5  6  1  0
  6  7  1  1
  7  8  2  0
  7  9  1  0
  9 10  1  0
 10 11  1  0
 11 12  1  0
 12 13  2  0
 12 14  1  0
 14 15  2  0
 15 16  1  0
 16 17  1  0
 17 18  1  0
 18 19  1  0
 15 20  1  0
 20 21  2  0
  6 22  1  0
 22 23  1  0
 22 24  1  0
 22  5  1  0
 20 11  1  0
 19 14  1  0
M  END
