
     RDKit          3D

 21 22  0  0  0  0  0  0  0  0999 V2000
   -1.9953   -2.2737    0.8697 C   0  0  0  0  0  0  0  0  0  0  0  0
   -1.7155   -0.7639    0.6446 C   0  0  0  0  0  0  0  0  0  0  0  0
   -1.1166   -0.2113    1.9446 C   0  0  0  0  0  0  0  0  0  0  0  0
   -3.0844   -0.0955    0.4129 C   0  0  0  0  0  0  0  0  0  0  0  0
   -0.7330   -0.6387   -0.5720 C   0  0  1  0  0  0  0  0  0  0  0  0
   -1.3897   -1.1513   -1.7508 O   0  0  0  0  0  0  0  0  0  0  0  0
   -0.0370    0.7075   -0.9489 C   0  0  2  0  0  0  0  0  0  0  0  0
    1.1734    1.1130   -0.0702 C   0  0  0  0  0  0  0  0  0  0  0  0
    2.3161    0.1169    0.0481 C   0  0  0  0  0  0  0  0  0  0  0  0
    2.7624   -0.5830   -1.0891 C   0  0  0  0  0  0  0  0  0  0  0  0
    3.8244   -1.4885   -1.0098 C   0  0  0  0  0  0  0  0  0  0  0  0
    4.4719   -1.6935    0.2028 C   0  0  0  0  0  0  0  0  0  0  0  0
    5.7795   -2.8064    0.2972 Cl  0  0  0  0  0  0  0  0  0  0  0  0
    4.0754   -0.9931    1.3356 C   0  0  0  0  0  0  0  0  0  0  0  0
    3.0126   -0.0869    1.2573 C   0  0  0  0  0  0  0  0  0  0  0  0
    2.6198    0.7745    2.7051 Cl  0  0  0  0  0  0  0  0  0  0  0  0
   -0.9909    1.7938   -1.1530 N   0  0  0  0  0  0  0  0  0  0  0  0
   -1.1389    2.9700   -0.4856 C   0  0  0  0  0  0  0  0  0  0  0  0
   -2.0993    3.6737   -1.0391 N   0  0  0  0  0  0  0  0  0  0  0  0
   -2.5171    2.8776   -2.0643 C   0  0  0  0  0  0  0  0  0  0  0  0
   -1.8744    1.7118   -2.1743 N   0  0  0  0  0  0  0  0  0  0  0  0
  1  2  1  0
  2  3  1  0
  2  4  1  0
  2  5  1  0
  5  6  1  6
  5  7  1  0
  7  8  1  1
  8  9  1  0
  9 10  2  0
 10 11  1  0
 11 12  2  0
 12 13  1  0
 12 14  1  0
 14 15  2  0
 15 16  1  0
  7 17  1  0
 17 18  1  0
 18 19  2  0
 19 20  1  0
 20 21  2  0
 15  9  1  0
 21 17  1  0
M  END
