
     RDKit          3D

 12 11  0  0  0  0  0  0  0  0999 V2000
    3.7036   -0.8410   -0.6325 C   0  0  0  0  0  0  0  0  0  0  0  0
    2.5179    0.1067   -0.4203 C   0  0  2  0  0  0  0  0  0  0  0  0
    2.7097    0.9693    0.8364 C   0  0  0  0  0  0  0  0  0  0  0  0
    2.6187    0.1845    2.1212 C   0  0  0  0  0  0  0  0  0  0  0  0
    1.7589    0.3845    2.9737 O   0  0  0  0  0  0  0  0  0  0  0  0
    1.1984   -0.6917   -0.4407 C   0  0  0  0  0  0  0  0  0  0  0  0
   -0.0517    0.1922   -0.3630 C   0  0  0  0  0  0  0  0  0  0  0  0
   -1.3307   -0.6485   -0.4833 C   0  0  0  0  0  0  0  0  0  0  0  0
   -2.6347    0.1743   -0.5026 C   0  0  0  0  0  0  0  0  0  0  0  0
   -2.8156    1.0166    0.7623 C   0  0  0  0  0  0  0  0  0  0  0  0
   -3.8322   -0.7650   -0.6808 C   0  0  0  0  0  0  0  0  0  0  0  0
   -2.5948    1.0517   -1.6308 O   0  0  0  0  0  0  0  0  0  0  0  0
  2  1  1  1
  2  3  1  0
  3  4  1  0
  4  5  2  0
  2  6  1  0
  6  7  1  0
  7  8  1  0
  8  9  1  0
  9 10  1  0
  9 11  1  0
  9 12  1  0
M  END
