
     RDKit          3D

 14 14  0  0  0  0  0  0  0  0999 V2000
   -4.4552    1.1327    0.5437 C   0  0  0  0  0  0  0  0  0  0  0  0
   -3.2382    1.3727   -0.3269 C   0  0  0  0  0  0  0  0  0  0  0  0
   -2.0768    1.2389    0.4775 O   0  0  0  0  0  0  0  0  0  0  0  0
   -0.6129    0.9870   -0.2001 P   0  0  2  0  0  5  0  0  0  0  0  0
   -0.2718    2.1960   -1.7057 S   0  0  0  0  0  0  0  0  0  0  0  0
   -0.7838   -0.7554   -0.7288 C   0  0  0  0  0  0  0  0  0  0  0  0
   -1.2784   -1.7170    0.3358 C   0  0  0  0  0  0  0  0  0  0  0  0
    0.7367    0.9953    1.4427 S   0  0  0  0  0  0  0  0  0  0  0  0
    2.1590    0.2959    0.6398 C   0  0  0  0  0  0  0  0  0  0  0  0
    2.5142   -1.0334    0.8930 C   0  0  0  0  0  0  0  0  0  0  0  0
    3.6317   -1.5963    0.2729 C   0  0  0  0  0  0  0  0  0  0  0  0
    4.4085   -0.8292   -0.5927 C   0  0  0  0  0  0  0  0  0  0  0  0
    4.0752    0.5029   -0.8296 C   0  0  0  0  0  0  0  0  0  0  0  0
    2.9587    1.0664   -0.2080 C   0  0  0  0  0  0  0  0  0  0  0  0
  1  2  1  0
  2  3  1  0
  3  4  1  0
  4  5  2  0
  4  6  1  6
  6  7  1  0
  4  8  1  0
  8  9  1  0
  9 10  2  0
 10 11  1  0
 11 12  2  0
 12 13  1  0
 13 14  2  0
 14  9  1  0
M  END
