
     RDKit          3D

 21 22  0  0  0  0  0  0  0  0999 V2000
   -4.9699   -0.6209    0.4293 C   0  0  0  0  0  0  0  0  0  0  0  0
   -4.2298   -0.6620   -0.8943 C   0  0  0  0  0  0  0  0  0  0  0  0
   -3.1815    0.3199   -0.9050 O   0  0  0  0  0  0  0  0  0  0  0  0
   -1.9883   -0.0688   -0.3730 C   0  0  0  0  0  0  0  0  0  0  0  0
   -1.7611   -1.1825    0.0849 O   0  0  0  0  0  0  0  0  0  0  0  0
   -0.9408    1.0301   -0.4935 C   0  0  2  0  0  0  0  0  0  0  0  0
   -1.4949    2.4279   -0.2509 C   0  0  0  0  0  0  0  0  0  0  0  0
   -0.3488    0.9686   -1.7865 O   0  0  0  0  0  0  0  0  0  0  0  0
    0.8900    0.4034   -1.6733 C   0  0  0  0  0  0  0  0  0  0  0  0
    1.5215    0.1085   -2.6755 O   0  0  0  0  0  0  0  0  0  0  0  0
    1.2448    0.2678   -0.3625 N   0  0  0  0  0  0  0  0  0  0  0  0
    2.4937   -0.2301    0.1262 C   0  0  0  0  0  0  0  0  0  0  0  0
    3.5853   -0.4623   -0.7282 C   0  0  0  0  0  0  0  0  0  0  0  0
    4.8017   -0.9530   -0.2374 C   0  0  0  0  0  0  0  0  0  0  0  0
    6.1154   -1.2106   -1.3207 Cl  0  0  0  0  0  0  0  0  0  0  0  0
    4.9662   -1.2310    1.1117 C   0  0  0  0  0  0  0  0  0  0  0  0
    3.8983   -1.0150    1.9698 C   0  0  0  0  0  0  0  0  0  0  0  0
    4.0751   -1.3636    3.6467 Cl  0  0  0  0  0  0  0  0  0  0  0  0
    2.6788   -0.5233    1.4892 C   0  0  0  0  0  0  0  0  0  0  0  0
    0.2266    0.7582    0.4122 C   0  0  0  0  0  0  0  0  0  0  0  0
    0.2180    0.9989    1.6129 O   0  0  0  0  0  0  0  0  0  0  0  0
  1  2  1  0
  2  3  1  0
  3  4  1  0
  4  5  2  0
  4  6  1  0
  6  7  1  1
  6  8  1  0
  8  9  1  0
  9 10  2  0
  9 11  1  0
 11 12  1  0
 12 13  2  0
 13 14  1  0
 14 15  1  0
 14 16  2  0
 16 17  1  0
 17 18  1  0
 17 19  2  0
 11 20  1  0
 20 21  2  0
 20  6  1  0
 19 12  1  0
M  END
