
     RDKit          3D

 21 22  0  0  0  0  0  0  0  0999 V2000
   -2.1735   -2.1417   -0.4693 C   0  0  0  0  0  0  0  0  0  0  0  0
   -2.5396   -0.6902   -0.1038 C   0  0  0  0  0  0  0  0  0  0  0  0
   -3.9849   -0.4569   -0.6193 C   0  0  0  0  0  0  0  0  0  0  0  0
   -2.5742   -0.5645    1.4255 C   0  0  0  0  0  0  0  0  0  0  0  0
   -1.6154    0.3885   -0.7705 C   0  0  2  0  0  0  0  0  0  0  0  0
   -1.6404    0.1967   -2.2001 O   0  0  0  0  0  0  0  0  0  0  0  0
   -0.1378    0.6122   -0.3150 C   0  0  2  0  0  0  0  0  0  0  0  0
    0.7357   -0.6612   -0.2657 C   0  0  0  0  0  0  0  0  0  0  0  0
    2.2214   -0.3948   -0.4441 C   0  0  0  0  0  0  0  0  0  0  0  0
    3.0578   -0.3630    0.6845 C   0  0  0  0  0  0  0  0  0  0  0  0
    4.4239   -0.1016    0.5543 C   0  0  0  0  0  0  0  0  0  0  0  0
    4.9705    0.1256   -0.7052 C   0  0  0  0  0  0  0  0  0  0  0  0
    6.6538    0.4437   -0.8606 Cl  0  0  0  0  0  0  0  0  0  0  0  0
    4.1657    0.0901   -1.8389 C   0  0  0  0  0  0  0  0  0  0  0  0
    2.7994   -0.1705   -1.7093 C   0  0  0  0  0  0  0  0  0  0  0  0
    1.8592   -0.2251   -3.1596 Cl  0  0  0  0  0  0  0  0  0  0  0  0
   -0.0469    1.4577    0.8723 N   0  0  0  0  0  0  0  0  0  0  0  0
    0.2158    1.1321    2.1679 C   0  0  0  0  0  0  0  0  0  0  0  0
    0.2286    2.2149    2.9093 N   0  0  0  0  0  0  0  0  0  0  0  0
   -0.0337    3.2037    2.0089 C   0  0  0  0  0  0  0  0  0  0  0  0
   -0.2105    2.7918    0.7525 N   0  0  0  0  0  0  0  0  0  0  0  0
  1  2  1  0
  2  3  1  0
  2  4  1  0
  2  5  1  0
  5  6  1  6
  5  7  1  0
  7  8  1  1
  8  9  1  0
  9 10  2  0
 10 11  1  0
 11 12  2  0
 12 13  1  0
 12 14  1  0
 14 15  2  0
 15 16  1  0
  7 17  1  0
 17 18  1  0
 18 19  2  0
 19 20  1  0
 20 21  2  0
 15  9  1  0
 21 17  1  0
M  END
