
     RDKit          3D

 24 26  0  0  0  0  0  0  0  0999 V2000
   -2.7558    0.4509   -2.5833 C   0  0  0  0  0  0  0  0  0  0  0  0
   -3.1105   -0.4306   -1.4165 C   0  0  0  0  0  0  0  0  0  0  0  0
   -4.4563   -1.0934   -1.5071 C   0  0  0  0  0  0  0  0  0  0  0  0
   -2.2616   -0.5920   -0.3826 C   0  0  0  0  0  0  0  0  0  0  0  0
   -2.4725   -1.4119    0.8201 C   0  0  1  0  0  0  0  0  0  0  0  0
   -1.8763   -1.0555    2.1672 C   0  0  1  0  0  0  0  0  0  0  0  0
   -0.9964    0.1136    2.3896 C   0  0  0  0  0  0  0  0  0  0  0  0
   -1.2539    0.9875    3.2035 O   0  0  0  0  0  0  0  0  0  0  0  0
    0.1280    0.0399    1.6373 O   0  0  0  0  0  0  0  0  0  0  0  0
    0.9698    1.1787    1.7927 C   0  0  0  0  0  0  0  0  0  0  0  0
    2.0730    1.0275    0.8848 N   0  0  0  0  0  0  0  0  0  0  0  0
    2.0257    1.3508   -0.4329 C   0  0  0  0  0  0  0  0  0  0  0  0
    1.1128    1.8453   -1.0678 O   0  0  0  0  0  0  0  0  0  0  0  0
    3.3259    0.9800   -0.9961 C   0  0  0  0  0  0  0  0  0  0  0  0
    4.0609    0.4446   -0.0182 C   0  0  0  0  0  0  0  0  0  0  0  0
    5.4450   -0.0610   -0.1709 C   0  0  0  0  0  0  0  0  0  0  0  0
    6.0426    0.3908   -1.5161 C   0  0  0  0  0  0  0  0  0  0  0  0
    5.0299    0.2963   -2.6698 C   0  0  0  0  0  0  0  0  0  0  0  0
    3.7590    1.1243   -2.4059 C   0  0  0  0  0  0  0  0  0  0  0  0
    3.2620    0.4597    1.2092 C   0  0  0  0  0  0  0  0  0  0  0  0
    3.6396    0.0327    2.2846 O   0  0  0  0  0  0  0  0  0  0  0  0
   -3.3745   -0.9094    1.9379 C   0  0  0  0  0  0  0  0  0  0  0  0
   -3.9864    0.4724    1.8681 C   0  0  0  0  0  0  0  0  0  0  0  0
   -4.2773   -1.9197    2.6034 C   0  0  0  0  0  0  0  0  0  0  0  0
  1  2  1  0
  2  3  1  0
  2  4  2  3
  5  4  1  6
  5  6  1  0
  6  7  1  6
  7  8  2  0
  7  9  1  0
  9 10  1  0
 10 11  1  0
 11 12  1  0
 12 13  2  0
 12 14  1  0
 14 15  2  0
 15 16  1  0
 16 17  1  0
 17 18  1  0
 18 19  1  0
 15 20  1  0
 20 21  2  0
  6 22  1  0
 22 23  1  0
 22 24  1  0
 22  5  1  0
 20 11  1  0
 19 14  1  0
M  END
