
     RDKit          3D

 20 21  0  0  0  0  0  0  0  0999 V2000
    3.9299   -0.9864   -0.2803 C   0  0  0  0  0  0  0  0  0  0  0  0
    2.5344   -0.5717   -0.7228 C   0  0  0  0  0  0  0  0  0  0  0  0
    1.9718    0.5320    0.1747 C   0  0  0  0  0  0  0  0  0  0  0  0
    0.6062    1.0750   -0.2895 C   0  0  0  0  0  0  0  0  0  0  0  0
   -0.6462    0.4244    0.3631 C   0  0  1  0  0  0  0  0  0  0  0  0
   -0.5166    0.6761    1.7872 O   0  0  0  0  0  0  0  0  0  0  0  0
   -1.9767    1.1210   -0.0536 C   0  0  0  0  0  0  0  0  0  0  0  0
   -1.9613    2.5678    0.0451 N   0  0  0  0  0  0  0  0  0  0  0  0
   -2.0659    3.3375    1.1616 C   0  0  0  0  0  0  0  0  0  0  0  0
   -2.0829    4.6055    0.8208 N   0  0  0  0  0  0  0  0  0  0  0  0
   -1.9870    4.5579   -0.5404 C   0  0  0  0  0  0  0  0  0  0  0  0
   -1.9208    3.3309   -1.0638 N   0  0  0  0  0  0  0  0  0  0  0  0
   -0.7205   -1.1025    0.1309 C   0  0  0  0  0  0  0  0  0  0  0  0
   -0.5147   -1.9833    1.2213 C   0  0  0  0  0  0  0  0  0  0  0  0
   -0.5852   -3.3730    1.0788 C   0  0  0  0  0  0  0  0  0  0  0  0
   -0.8481   -3.9251   -0.1651 C   0  0  0  0  0  0  0  0  0  0  0  0
   -0.9356   -5.6323   -0.3452 Cl  0  0  0  0  0  0  0  0  0  0  0  0
   -1.0210   -3.1003   -1.2680 C   0  0  0  0  0  0  0  0  0  0  0  0
   -0.9462   -1.7057   -1.1290 C   0  0  0  0  0  0  0  0  0  0  0  0
   -1.0862   -0.8188   -2.6065 Cl  0  0  0  0  0  0  0  0  0  0  0  0
  1  2  1  0
  2  3  1  0
  3  4  1  0
  4  5  1  0
  5  6  1  1
  5  7  1  0
  7  8  1  0
  8  9  1  0
  9 10  2  0
 10 11  1  0
 11 12  2  0
  5 13  1  0
 13 14  2  0
 14 15  1  0
 15 16  2  0
 16 17  1  0
 16 18  1  0
 18 19  2  0
 19 20  1  0
 12  8  1  0
 19 13  1  0
M  END
