
     RDKit          3D

 14 14  0  0  0  0  0  0  0  0999 V2000
    2.2966   -1.7716   -1.7704 C   0  0  0  0  0  0  0  0  0  0  0  0
    2.7034   -0.8281   -0.6568 C   0  0  0  0  0  0  0  0  0  0  0  0
    1.6483   -0.7753    0.2892 O   0  0  0  0  0  0  0  0  0  0  0  0
    1.4483    0.5220    1.2566 P   0  0  1  0  0  5  0  0  0  0  0  0
    3.1206    1.0750    2.1151 S   0  0  0  0  0  0  0  0  0  0  0  0
    0.8300    1.7495    0.0510 C   0  0  0  0  0  0  0  0  0  0  0  0
    0.3745    3.0642    0.6583 C   0  0  0  0  0  0  0  0  0  0  0  0
   -0.1830    0.0494    2.5371 S   0  0  0  0  0  0  0  0  0  0  0  0
   -1.3868   -0.4275    1.3210 C   0  0  0  0  0  0  0  0  0  0  0  0
   -1.2945   -1.6539    0.6572 C   0  0  0  0  0  0  0  0  0  0  0  0
   -2.2518   -2.0164   -0.2926 C   0  0  0  0  0  0  0  0  0  0  0  0
   -3.3161   -1.1613   -0.5719 C   0  0  0  0  0  0  0  0  0  0  0  0
   -3.4288    0.0522    0.1038 C   0  0  0  0  0  0  0  0  0  0  0  0
   -2.4707    0.4151    1.0527 C   0  0  0  0  0  0  0  0  0  0  0  0
  1  2  1  0
  2  3  1  0
  3  4  1  0
  4  5  2  0
  4  6  1  6
  6  7  1  0
  4  8  1  0
  8  9  1  0
  9 10  2  0
 10 11  1  0
 11 12  2  0
 12 13  1  0
 13 14  2  0
 14  9  1  0
M  END
