
     RDKit          3D

 20 21  0  0  0  0  0  0  0  0999 V2000
    3.7743   -0.0735   -1.7531 C   0  0  0  0  0  0  0  0  0  0  0  0
    2.7164   -1.1298   -1.4747 C   0  0  0  0  0  0  0  0  0  0  0  0
    2.3480   -1.2533    0.0046 C   0  0  0  0  0  0  0  0  0  0  0  0
    1.7566   -0.0060    0.6894 C   0  0  0  0  0  0  0  0  0  0  0  0
    0.3902    0.5235    0.1479 C   0  0  2  0  0  0  0  0  0  0  0  0
    0.7070    1.0770   -1.1295 O   0  0  0  0  0  0  0  0  0  0  0  0
   -0.0574    1.6950    1.0698 C   0  0  0  0  0  0  0  0  0  0  0  0
   -1.3409    2.2604    0.7052 N   0  0  0  0  0  0  0  0  0  0  0  0
   -2.4929    2.2580    1.4255 C   0  0  0  0  0  0  0  0  0  0  0  0
   -3.4386    2.8549    0.7380 N   0  0  0  0  0  0  0  0  0  0  0  0
   -2.8020    3.2134   -0.4162 C   0  0  0  0  0  0  0  0  0  0  0  0
   -1.5122    2.8700   -0.4831 N   0  0  0  0  0  0  0  0  0  0  0  0
   -0.6856   -0.5822    0.1156 C   0  0  0  0  0  0  0  0  0  0  0  0
   -0.9045   -1.3263    1.3026 C   0  0  0  0  0  0  0  0  0  0  0  0
   -1.8658   -2.3377    1.3767 C   0  0  0  0  0  0  0  0  0  0  0  0
   -2.6439   -2.6278    0.2664 C   0  0  0  0  0  0  0  0  0  0  0  0
   -3.8282   -3.8711    0.3520 Cl  0  0  0  0  0  0  0  0  0  0  0  0
   -2.4718   -1.9110   -0.9102 C   0  0  0  0  0  0  0  0  0  0  0  0
   -1.5076   -0.8939   -0.9896 C   0  0  0  0  0  0  0  0  0  0  0  0
   -1.4497   -0.0680   -2.5077 Cl  0  0  0  0  0  0  0  0  0  0  0  0
  1  2  1  0
  2  3  1  0
  3  4  1  0
  4  5  1  0
  5  6  1  6
  5  7  1  0
  7  8  1  0
  8  9  1  0
  9 10  2  0
 10 11  1  0
 11 12  2  0
  5 13  1  0
 13 14  2  0
 14 15  1  0
 15 16  2  0
 16 17  1  0
 16 18  1  0
 18 19  2  0
 19 20  1  0
 12  8  1  0
 19 13  1  0
M  END
