
     RDKit          3D

 15 16  0  0  0  0  0  0  0  0999 V2000
   -2.5884    2.4394   -0.9769 C   0  0  0  0  0  0  0  0  0  0  0  0
   -1.6315    1.4055   -0.8878 O   0  0  0  0  0  0  0  0  0  0  0  0
   -1.8894    0.2868    0.2434 P   0  0  0  0  0  5  0  0  0  0  0  0
   -2.2710    0.8008    1.5979 O   0  0  0  0  0  0  0  0  0  0  0  0
   -3.0214   -0.6411   -0.4407 O   0  0  0  0  0  0  0  0  0  0  0  0
   -3.5196   -1.7039    0.3450 C   0  0  0  0  0  0  0  0  0  0  0  0
   -0.5760   -0.6519    0.1842 O   0  0  0  0  0  0  0  0  0  0  0  0
    0.6108   -0.3064    0.5135 C   0  0  0  0  0  0  0  0  0  0  0  0
    1.2563    0.7986    0.9587 C   0  0  0  0  0  0  0  0  0  0  0  0
    0.7400    2.4538    1.3392 Cl  0  0  0  0  0  0  0  0  0  0  0  0
    2.6120    0.1251    1.0269 C   0  0  2  0  0  0  0  0  0  0  0  0
    3.5716    0.5197   -0.0291 C   0  0  0  0  0  0  0  0  0  0  0  0
    3.5365   -0.3547   -1.0419 C   0  0  0  0  0  0  0  0  0  0  0  0
    2.5443   -1.4629   -0.8366 C   0  0  0  0  0  0  0  0  0  0  0  0
    1.8951   -1.1450    0.5198 C   0  0  2  0  0  0  0  0  0  0  0  0
  1  2  1  0
  2  3  1  0
  3  4  2  0
  3  5  1  0
  5  6  1  0
  3  7  1  0
  7  8  1  0
  8  9  2  0
  9 10  1  0
  9 11  1  0
 11 12  1  6
 12 13  2  0
 13 14  1  0
 15 14  1  6
 15  8  1  0
 15 11  1  0
M  END
