
     RDKit          3D

 11 10  0  0  0  0  0  0  0  0999 V2000
    3.0831    0.9706   -1.1694 C   0  0  0  0  0  0  0  0  0  0  0  0
    2.5802    0.4349    0.1428 C   0  0  0  0  0  0  0  0  0  0  0  0
    3.6223   -0.2754    0.9657 C   0  0  0  0  0  0  0  0  0  0  0  0
    1.3116    0.5450    0.5829 C   0  0  0  0  0  0  0  0  0  0  0  0
    0.1705    1.2403   -0.1020 C   0  0  0  0  0  0  0  0  0  0  0  0
   -0.6125    0.3754   -1.0987 C   0  0  0  0  0  0  0  0  0  0  0  0
   -1.4380   -0.8093   -0.5480 C   0  0  1  0  0  0  0  0  0  0  0  0
   -0.5632   -2.0082   -0.1673 C   0  0  0  0  0  0  0  0  0  0  0  0
   -2.3771   -0.4511    0.6216 C   0  0  0  0  0  0  0  0  0  0  0  0
   -3.3943    0.6424    0.3047 C   0  0  0  0  0  0  0  0  0  0  0  0
   -4.1985    0.2827   -0.8092 O   0  0  0  0  0  0  0  0  0  0  0  0
  1  2  1  0
  2  3  1  0
  2  4  2  3
  4  5  1  0
  5  6  1  0
  6  7  1  0
  7  8  1  1
  7  9  1  0
  9 10  1  0
 10 11  1  0
M  END
