
     RDKit          3D

 24 25  0  0  0  0  0  0  0  0999 V2000
   -2.1312    4.4570   -0.1827 C   0  0  0  0  0  0  0  0  0  0  0  0
   -2.1064    3.2047   -0.8673 O   0  0  0  0  0  0  0  0  0  0  0  0
   -1.7565    2.1475   -0.0742 C   0  0  0  0  0  0  0  0  0  0  0  0
   -1.5572    2.2207    1.1334 O   0  0  0  0  0  0  0  0  0  0  0  0
   -1.7178    0.8570   -0.9085 C   0  0  2  0  0  0  0  0  0  0  0  0
   -3.1495    0.3191   -0.9855 C   0  0  0  0  0  0  0  0  0  0  0  0
   -0.6927   -0.0429   -0.3316 N   0  0  0  0  0  0  0  0  0  0  0  0
    0.6445    0.3508   -0.4999 C   0  0  0  0  0  0  0  0  0  0  0  0
    0.9331    1.3818   -1.1144 O   0  0  0  0  0  0  0  0  0  0  0  0
    1.7191   -0.5449    0.1202 C   0  0  0  0  0  0  0  0  0  0  0  0
    2.9071    0.2278    0.6486 C   0  0  0  0  0  0  0  0  0  0  0  0
    2.7838    1.0017    1.8119 C   0  0  0  0  0  0  0  0  0  0  0  0
    3.8774    1.7135    2.3066 C   0  0  0  0  0  0  0  0  0  0  0  0
    5.1021    1.6605    1.6440 C   0  0  0  0  0  0  0  0  0  0  0  0
    5.2339    0.8987    0.4844 C   0  0  0  0  0  0  0  0  0  0  0  0
    4.1416    0.1858   -0.0130 C   0  0  0  0  0  0  0  0  0  0  0  0
   -1.0247   -1.4066   -0.1079 C   0  0  0  0  0  0  0  0  0  0  0  0
   -1.4617   -1.8000    1.1756 C   0  0  0  0  0  0  0  0  0  0  0  0
   -1.5926   -0.8216    2.3118 C   0  0  0  0  0  0  0  0  0  0  0  0
   -1.7965   -3.1430    1.3982 C   0  0  0  0  0  0  0  0  0  0  0  0
   -1.6767   -4.0837    0.3784 C   0  0  0  0  0  0  0  0  0  0  0  0
   -1.2308   -3.6947   -0.8826 C   0  0  0  0  0  0  0  0  0  0  0  0
   -0.9088   -2.3555   -1.1491 C   0  0  0  0  0  0  0  0  0  0  0  0
   -0.4421   -1.9908   -2.5329 C   0  0  0  0  0  0  0  0  0  0  0  0
  1  2  1  0
  2  3  1  0
  3  4  2  0
  3  5  1  0
  5  6  1  1
  5  7  1  0
  7  8  1  0
  8  9  2  0
  8 10  1  0
 10 11  1  0
 11 12  2  0
 12 13  1  0
 13 14  2  0
 14 15  1  0
 15 16  2  0
  7 17  1  0
 17 18  2  0
 18 19  1  0
 18 20  1  0
 20 21  2  0
 21 22  1  0
 22 23  2  0
 23 24  1  0
 16 11  1  0
 23 17  1  0
M  END
