
     RDKit          3D

 20 21  0  0  0  0  0  0  0  0999 V2000
    4.1672   -0.8662    1.4972 C   0  0  0  0  0  0  0  0  0  0  0  0
    3.5497   -1.6723    0.3648 C   0  0  0  0  0  0  0  0  0  0  0  0
    2.0185   -1.7134    0.4032 C   0  0  0  0  0  0  0  0  0  0  0  0
    1.3708   -0.3479    0.1271 C   0  0  0  0  0  0  0  0  0  0  0  0
   -0.1877   -0.3381    0.1608 C   0  0  2  0  0  0  0  0  0  0  0  0
   -0.5993   -0.8822    1.4246 O   0  0  0  0  0  0  0  0  0  0  0  0
   -0.7473   -1.3355   -0.8935 C   0  0  0  0  0  0  0  0  0  0  0  0
   -2.1860   -1.2959   -1.0696 N   0  0  0  0  0  0  0  0  0  0  0  0
   -3.1563   -1.5978   -0.1655 C   0  0  0  0  0  0  0  0  0  0  0  0
   -4.3353   -1.4932   -0.7352 N   0  0  0  0  0  0  0  0  0  0  0  0
   -4.0262   -1.1382   -2.0163 C   0  0  0  0  0  0  0  0  0  0  0  0
   -2.7214   -1.0167   -2.2764 N   0  0  0  0  0  0  0  0  0  0  0  0
   -0.6360    1.1320   -0.0112 C   0  0  0  0  0  0  0  0  0  0  0  0
   -0.9073    1.6270   -1.3075 C   0  0  0  0  0  0  0  0  0  0  0  0
   -1.3121    2.9480   -1.5279 C   0  0  0  0  0  0  0  0  0  0  0  0
   -1.4328    3.8208   -0.4577 C   0  0  0  0  0  0  0  0  0  0  0  0
   -1.9250    5.4460   -0.7254 Cl  0  0  0  0  0  0  0  0  0  0  0  0
   -1.1360    3.3880    0.8272 C   0  0  0  0  0  0  0  0  0  0  0  0
   -0.7304    2.0638    1.0485 C   0  0  0  0  0  0  0  0  0  0  0  0
   -0.3063    1.6842    2.6850 Cl  0  0  0  0  0  0  0  0  0  0  0  0
  1  2  1  0
  2  3  1  0
  3  4  1  0
  4  5  1  0
  5  6  1  1
  5  7  1  0
  7  8  1  0
  8  9  1  0
  9 10  2  0
 10 11  1  0
 11 12  2  0
  5 13  1  0
 13 14  2  0
 14 15  1  0
 15 16  2  0
 16 17  1  0
 16 18  1  0
 18 19  2  0
 19 20  1  0
 12  8  1  0
 19 13  1  0
M  END
