
     RDKit          3D

 21 21  0  0  0  0  0  0  0  0999 V2000
   -0.8866    4.2468   -1.0177 C   0  0  0  0  0  0  0  0  0  0  0  0
   -0.6718    3.2495    0.1019 C   0  0  0  0  0  0  0  0  0  0  0  0
   -1.0823    1.9684   -0.3526 O   0  0  0  0  0  0  0  0  0  0  0  0
   -0.4243    0.6445    0.3166 P   0  0  1  0  0  5  0  0  0  0  0  0
   -0.6026    0.5687    2.2505 S   0  0  0  0  0  0  0  0  0  0  0  0
   -1.0271   -0.5465   -0.6537 N   0  0  0  0  0  0  0  0  0  0  0  0
   -2.3888   -1.0816   -0.5805 C   0  0  1  0  0  0  0  0  0  0  0  0
   -2.5713   -1.9996    0.6275 C   0  0  0  0  0  0  0  0  0  0  0  0
   -3.4569    0.0200   -0.6768 C   0  0  0  0  0  0  0  0  0  0  0  0
   -4.8745   -0.5240   -0.7974 C   0  0  0  0  0  0  0  0  0  0  0  0
    1.0971    0.8224   -0.2123 O   0  0  0  0  0  0  0  0  0  0  0  0
    2.1525   -0.0191    0.0032 C   0  0  0  0  0  0  0  0  0  0  0  0
    1.9973   -1.3356    0.4439 C   0  0  0  0  0  0  0  0  0  0  0  0
    3.1136   -2.1711    0.6275 C   0  0  0  0  0  0  0  0  0  0  0  0
    2.9225   -3.5914    1.0790 C   0  0  0  0  0  0  0  0  0  0  0  0
    4.3957   -1.6917    0.3320 C   0  0  0  0  0  0  0  0  0  0  0  0
    4.5686   -0.3837   -0.1158 C   0  0  0  0  0  0  0  0  0  0  0  0
    3.4465    0.4410   -0.2695 C   0  0  0  0  0  0  0  0  0  0  0  0
    3.6631    1.8020   -0.7363 N   0  0  0  0  0  4  0  0  0  0  0  0
    4.4111    1.9486   -1.7138 O   0  0  0  0  0  0  0  0  0  0  0  0
    3.1109    2.7225   -0.1175 O   0  0  0  0  0  1  0  0  0  0  0  0
  1  2  1  0
  2  3  1  0
  3  4  1  0
  4  5  2  0
  4  6  1  6
  6  7  1  0
  7  8  1  1
  7  9  1  0
  9 10  1  0
  4 11  1  0
 11 12  1  0
 12 13  2  0
 13 14  1  0
 14 15  1  0
 14 16  2  0
 16 17  1  0
 17 18  2  0
 18 19  1  0
 19 20  2  0
 19 21  1  0
 18 12  1  0
M  CHG  2  19   1  21  -1
M  END
