
     RDKit          3D

 21 22  0  0  0  0  0  0  0  0999 V2000
   -2.7400   -1.8929   -0.0090 C   0  0  0  0  0  0  0  0  0  0  0  0
   -1.8450   -0.6921    0.3741 C   0  0  0  0  0  0  0  0  0  0  0  0
   -0.9689   -1.1157    1.5667 C   0  0  0  0  0  0  0  0  0  0  0  0
   -2.7719    0.4551    0.8273 C   0  0  0  0  0  0  0  0  0  0  0  0
   -1.0011   -0.2507   -0.8738 C   0  0  2  0  0  0  0  0  0  0  0  0
   -0.3008   -1.3519   -1.4647 O   0  0  0  0  0  0  0  0  0  0  0  0
   -0.0490    0.9686   -0.6575 C   0  0  1  0  0  0  0  0  0  0  0  0
    1.4589    0.7321   -0.9159 C   0  0  0  0  0  0  0  0  0  0  0  0
    2.1844   -0.0944    0.1280 C   0  0  0  0  0  0  0  0  0  0  0  0
    2.5710   -1.4074   -0.1951 C   0  0  0  0  0  0  0  0  0  0  0  0
    3.2353   -2.2094    0.7348 C   0  0  0  0  0  0  0  0  0  0  0  0
    3.5328   -1.7032    1.9961 C   0  0  0  0  0  0  0  0  0  0  0  0
    4.3474   -2.6935    3.1423 Cl  0  0  0  0  0  0  0  0  0  0  0  0
    3.1820   -0.4000    2.3329 C   0  0  0  0  0  0  0  0  0  0  0  0
    2.5178    0.4029    1.4013 C   0  0  0  0  0  0  0  0  0  0  0  0
    2.1463    2.0218    1.8753 Cl  0  0  0  0  0  0  0  0  0  0  0  0
   -0.5009    2.0820   -1.5047 N   0  0  0  0  0  0  0  0  0  0  0  0
   -0.4708    2.1768   -2.8634 C   0  0  0  0  0  0  0  0  0  0  0  0
   -0.9706    3.3329   -3.2332 N   0  0  0  0  0  0  0  0  0  0  0  0
   -1.3045    3.9172   -2.0449 C   0  0  0  0  0  0  0  0  0  0  0  0
   -1.0433    3.1865   -0.9581 N   0  0  0  0  0  0  0  0  0  0  0  0
  1  2  1  0
  2  3  1  0
  2  4  1  0
  2  5  1  0
  5  6  1  1
  5  7  1  0
  7  8  1  6
  8  9  1  0
  9 10  2  0
 10 11  1  0
 11 12  2  0
 12 13  1  0
 12 14  1  0
 14 15  2  0
 15 16  1  0
  7 17  1  0
 17 18  1  0
 18 19  2  0
 19 20  1  0
 20 21  2  0
 15  9  1  0
 21 17  1  0
M  END
