
     RDKit          3D

 20 21  0  0  0  0  0  0  0  0999 V2000
   -2.6157    1.3115    0.3009 C   0  0  0  0  0  0  0  0  0  0  0  0
   -1.8645    0.0246   -0.0805 C   0  0  0  0  0  0  0  0  0  0  0  0
   -1.4266    0.1436   -1.5523 C   0  0  0  0  0  0  0  0  0  0  0  0
   -2.8736   -1.1434    0.0214 C   0  0  0  0  0  0  0  0  0  0  0  0
   -0.6331   -0.2909    0.8448 C   0  0  2  0  0  0  0  0  0  0  0  0
   -1.0585   -0.5419    2.1889 O   0  0  0  0  0  0  0  0  0  0  0  0
    0.5508    0.6936    0.8392 C   0  0  0  0  0  0  0  0  0  0  0  0
    1.6852    0.4521    0.1337 C   0  0  0  0  0  0  0  0  0  0  0  0
    1.9878   -0.7288   -0.6845 C   0  0  0  0  0  0  0  0  0  0  0  0
    2.2315   -1.9723   -0.0881 C   0  0  0  0  0  0  0  0  0  0  0  0
    2.5412   -3.0831   -0.8769 C   0  0  0  0  0  0  0  0  0  0  0  0
    2.6197   -2.9483   -2.2614 C   0  0  0  0  0  0  0  0  0  0  0  0
    3.0010   -4.3152   -3.2336 Cl  0  0  0  0  0  0  0  0  0  0  0  0
    2.3953   -1.7117   -2.8637 C   0  0  0  0  0  0  0  0  0  0  0  0
    2.0851   -0.6008   -2.0749 C   0  0  0  0  0  0  0  0  0  0  0  0
    0.4160    1.8524    1.6519 N   0  0  0  0  0  0  0  0  0  0  0  0
    1.2921    2.9285    1.7536 C   0  0  0  0  0  0  0  0  0  0  0  0
    0.8689    3.8258    2.6109 N   0  0  0  0  0  0  0  0  0  0  0  0
   -0.2896    3.2841    3.0526 C   0  0  0  0  0  0  0  0  0  0  0  0
   -0.6155    2.1089    2.5195 N   0  0  0  0  0  0  0  0  0  0  0  0
  1  2  1  0
  2  3  1  0
  2  4  1  0
  2  5  1  0
  5  6  1  1
  5  7  1  0
  7  8  2  0
  8  9  1  0
  9 10  2  0
 10 11  1  0
 11 12  2  0
 12 13  1  0
 12 14  1  0
 14 15  2  0
  7 16  1  0
 16 17  1  0
 17 18  2  0
 18 19  1  0
 19 20  2  0
 15  9  1  0
 20 16  1  0
M  END
