
     RDKit          3D

 19 20  0  0  0  0  0  0  0  0999 V2000
   -0.2721   -0.6906   -2.4319 O   0  0  0  0  0  0  0  0  0  0  0  0
   -0.9708   -0.2717   -1.5207 C   0  0  0  0  0  0  0  0  0  0  0  0
   -2.4775   -0.0851   -1.6129 C   0  0  2  0  0  0  0  0  0  0  0  0
   -2.8982    0.7232   -3.1346 Cl  0  0  0  0  0  0  0  0  0  0  0  0
   -2.8205    0.7631   -0.3897 C   0  0  1  0  0  0  0  0  0  0  0  0
   -4.1982    0.4991    0.2066 C   0  0  0  0  0  0  0  0  0  0  0  0
   -5.5149    1.0530   -0.8442 Cl  0  0  0  0  0  0  0  0  0  0  0  0
   -1.7312    0.3729    0.6010 C   0  0  0  0  0  0  0  0  0  0  0  0
   -0.5818    0.0475   -0.2064 N   0  0  0  0  0  0  0  0  0  0  0  0
    0.7296   -0.0640    0.3365 C   0  0  0  0  0  0  0  0  0  0  0  0
    0.9435    0.0516    1.7193 C   0  0  0  0  0  0  0  0  0  0  0  0
    2.2245   -0.0569    2.2703 C   0  0  0  0  0  0  0  0  0  0  0  0
    3.3229   -0.2790    1.4468 C   0  0  0  0  0  0  0  0  0  0  0  0
    3.1493   -0.3873    0.0631 C   0  0  0  0  0  0  0  0  0  0  0  0
    4.3244   -0.6383   -0.8505 C   0  0  0  0  0  0  0  0  0  0  0  0
    4.3716   -1.9236   -1.2960 F   0  0  0  0  0  0  0  0  0  0  0  0
    4.3111    0.1483   -1.9616 F   0  0  0  0  0  0  0  0  0  0  0  0
    5.5280   -0.4091   -0.2517 F   0  0  0  0  0  0  0  0  0  0  0  0
    1.8512   -0.2827   -0.4754 C   0  0  0  0  0  0  0  0  0  0  0  0
  1  2  2  0
  2  3  1  0
  3  4  1  6
  3  5  1  0
  5  6  1  1
  6  7  1  0
  5  8  1  0
  8  9  1  0
  9 10  1  0
 10 11  2  0
 11 12  1  0
 12 13  2  0
 13 14  1  0
 14 15  1  0
 15 16  1  0
 15 17  1  0
 15 18  1  0
 14 19  2  0
  9  2  1  0
 19 10  1  0
M  END
