
     RDKit          3D

 21 22  0  0  0  0  0  0  0  0999 V2000
   -0.4476    2.9382   -2.2500 C   0  0  0  0  0  0  0  0  0  0  0  0
   -1.2170    2.2756   -1.1241 C   0  0  0  0  0  0  0  0  0  0  0  0
   -0.4134    1.2392   -0.5818 O   0  0  0  0  0  0  0  0  0  0  0  0
   -1.0091    0.3348    0.6385 P   0  0  2  0  0  5  0  0  0  0  0  0
   -1.3710    1.3489    2.2736 S   0  0  0  0  0  0  0  0  0  0  0  0
    0.1752   -0.7659    0.8020 O   0  0  0  0  0  0  0  0  0  0  0  0
    1.4924   -0.5416    1.0851 C   0  0  0  0  0  0  0  0  0  0  0  0
    2.0931    0.7148    1.1505 C   0  0  0  0  0  0  0  0  0  0  0  0
    3.4597    0.8261    1.4326 C   0  0  0  0  0  0  0  0  0  0  0  0
    4.2190   -0.3305    1.6517 C   0  0  0  0  0  0  0  0  0  0  0  0
    5.6520   -0.2156    1.9445 N   0  0  0  0  0  4  0  0  0  0  0  0
    6.2428   -1.2326    2.3361 O   0  0  0  0  0  0  0  0  0  0  0  0
    6.1870    0.8911    1.7798 O   0  0  0  0  0  1  0  0  0  0  0  0
    3.6218   -1.5946    1.5890 C   0  0  0  0  0  0  0  0  0  0  0  0
    2.2574   -1.6915    1.3050 C   0  0  0  0  0  0  0  0  0  0  0  0
   -2.2974   -0.6309   -0.1562 C   0  0  0  0  0  0  0  0  0  0  0  0
   -2.0055   -1.3544   -1.3258 C   0  0  0  0  0  0  0  0  0  0  0  0
   -2.9912   -2.1044   -1.9684 C   0  0  0  0  0  0  0  0  0  0  0  0
   -4.2835   -2.1406   -1.4512 C   0  0  0  0  0  0  0  0  0  0  0  0
   -4.5900   -1.4290   -0.2933 C   0  0  0  0  0  0  0  0  0  0  0  0
   -3.6042   -0.6780    0.3510 C   0  0  0  0  0  0  0  0  0  0  0  0
  1  2  1  0
  2  3  1  0
  4  3  1  6
  4  5  2  0
  4  6  1  0
  6  7  1  0
  7  8  2  0
  8  9  1  0
  9 10  2  0
 10 11  1  0
 11 12  2  0
 11 13  1  0
 10 14  1  0
 14 15  2  0
  4 16  1  0
 16 17  2  0
 17 18  1  0
 18 19  2  0
 19 20  1  0
 20 21  2  0
 15  7  1  0
 21 16  1  0
M  CHG  2  11   1  13  -1
M  END
