
     RDKit          3D

 18 18  0  0  0  0  0  0  0  0999 V2000
   -3.4219    2.8481    1.5549 C   0  0  0  0  0  0  0  0  0  0  0  0
   -3.0530    2.8366    0.0775 C   0  0  0  0  0  0  0  0  0  0  0  0
   -2.4038    1.5341   -0.3857 C   0  0  0  0  0  0  0  0  0  0  0  0
   -0.7549    1.2837    0.3258 S   0  0  0  0  0  0  0  0  0  0  0  0
   -0.1919   -0.5653   -0.4619 P   0  0  2  0  0  5  0  0  0  0  0  0
   -0.2425   -0.5464   -1.9651 O   0  0  0  0  0  0  0  0  0  0  0  0
   -1.1795   -1.6969    0.1458 O   0  0  0  0  0  0  0  0  0  0  0  0
   -1.0514   -3.0087   -0.3762 C   0  0  0  0  0  0  0  0  0  0  0  0
   -1.9803   -3.9272    0.3903 C   0  0  0  0  0  0  0  0  0  0  0  0
    1.2339   -1.0346    0.1267 O   0  0  0  0  0  0  0  0  0  0  0  0
    2.4238   -0.3860   -0.0563 C   0  0  0  0  0  0  0  0  0  0  0  0
    2.6337    0.5489   -1.0713 C   0  0  0  0  0  0  0  0  0  0  0  0
    3.8789    1.1713   -1.2036 C   0  0  0  0  0  0  0  0  0  0  0  0
    4.9137    0.8545   -0.3253 C   0  0  0  0  0  0  0  0  0  0  0  0
    6.5934    1.7004   -0.5122 Br  0  0  0  0  0  0  0  0  0  0  0  0
    4.7205   -0.0830    0.6850 C   0  0  0  0  0  0  0  0  0  0  0  0
    3.4764   -0.7030    0.8147 C   0  0  0  0  0  0  0  0  0  0  0  0
    3.2691   -1.8629    2.0796 Cl  0  0  0  0  0  0  0  0  0  0  0  0
  1  2  1  0
  2  3  1  0
  3  4  1  0
  4  5  1  0
  5  6  2  0
  5  7  1  1
  7  8  1  0
  8  9  1  0
  5 10  1  0
 10 11  1  0
 11 12  2  0
 12 13  1  0
 13 14  2  0
 14 15  1  0
 14 16  1  0
 16 17  2  0
 17 18  1  0
 17 11  1  0
M  END
