
     RDKit          3D

 20 21  0  0  0  0  0  0  0  0999 V2000
   -1.7086   -0.0721   -2.0790 C   0  0  0  0  0  0  0  0  0  0  0  0
   -2.0235   -0.4575   -0.6217 C   0  0  0  0  0  0  0  0  0  0  0  0
   -3.1705    0.4289   -0.1044 C   0  0  0  0  0  0  0  0  0  0  0  0
   -2.5510   -1.9144   -0.6315 C   0  0  0  0  0  0  0  0  0  0  0  0
   -0.7331   -0.3927    0.2699 C   0  0  2  0  0  0  0  0  0  0  0  0
   -1.0413   -0.6602    1.6452 O   0  0  0  0  0  0  0  0  0  0  0  0
    0.1625    0.8788    0.1791 C   0  0  2  0  0  0  0  0  0  0  0  0
    1.4699    0.7488    0.9974 C   0  0  0  0  0  0  0  0  0  0  0  0
    2.4136   -0.3116    0.4759 C   0  0  0  0  0  0  0  0  0  0  0  0
    2.5884   -1.5129    1.1775 C   0  0  0  0  0  0  0  0  0  0  0  0
    3.4490   -2.4980    0.6886 C   0  0  0  0  0  0  0  0  0  0  0  0
    4.1398   -2.2854   -0.5022 C   0  0  0  0  0  0  0  0  0  0  0  0
    5.1975   -3.5008   -1.1054 Cl  0  0  0  0  0  0  0  0  0  0  0  0
    3.9792   -1.0950   -1.2075 C   0  0  0  0  0  0  0  0  0  0  0  0
    3.1188   -0.1092   -0.7192 C   0  0  0  0  0  0  0  0  0  0  0  0
   -0.5092    2.1095    0.5721 N   0  0  0  0  0  0  0  0  0  0  0  0
   -1.0510    2.4405    1.7773 C   0  0  0  0  0  0  0  0  0  0  0  0
   -1.4807    3.6810    1.7419 N   0  0  0  0  0  0  0  0  0  0  0  0
   -1.1604    4.0802    0.4769 C   0  0  0  0  0  0  0  0  0  0  0  0
   -0.5534    3.1590   -0.2758 N   0  0  0  0  0  0  0  0  0  0  0  0
  1  2  1  0
  2  3  1  0
  2  4  1  0
  2  5  1  0
  5  6  1  1
  5  7  1  0
  7  8  1  1
  8  9  1  0
  9 10  2  0
 10 11  1  0
 11 12  2  0
 12 13  1  0
 12 14  1  0
 14 15  2  0
  7 16  1  0
 16 17  1  0
 17 18  2  0
 18 19  1  0
 19 20  2  0
 15  9  1  0
 20 16  1  0
M  END
