
     RDKit          3D

 26 28  0  0  0  0  0  0  0  0999 V2000
   -2.2069   -1.3052   -0.4485 C   0  0  0  0  0  0  0  0  0  0  0  0
   -3.5031   -0.5346   -0.3369 C   0  0  0  0  0  0  0  0  0  0  0  0
   -4.4514   -0.8003   -1.4818 C   0  0  0  0  0  0  0  0  0  0  0  0
   -4.0194   -0.2555    1.0666 C   0  0  2  0  0  0  0  0  0  0  0  0
   -5.4594   -0.3315    1.3618 C   0  0  0  0  0  0  0  0  0  0  0  0
   -6.1847    0.4918    2.1343 C   0  0  0  0  0  0  0  0  0  0  0  0
   -5.4936    1.8559    2.9328 Cl  0  0  0  0  0  0  0  0  0  0  0  0
   -7.8756    0.2103    2.3568 Cl  0  0  0  0  0  0  0  0  0  0  0  0
   -3.4864    0.8837    0.2199 C   0  0  1  0  0  0  0  0  0  0  0  0
   -2.2043    1.5414    0.5656 C   0  0  0  0  0  0  0  0  0  0  0  0
   -1.7394    1.5232    1.6947 O   0  0  0  0  0  0  0  0  0  0  0  0
   -1.6514    2.1157   -0.5310 O   0  0  0  0  0  0  0  0  0  0  0  0
   -0.3471    2.6705   -0.3383 C   0  0  0  0  0  0  0  0  0  0  0  0
    0.6831    1.6638   -0.7800 C   0  0  0  0  0  0  0  0  0  0  0  0
    1.0079    1.5249   -2.1373 C   0  0  0  0  0  0  0  0  0  0  0  0
    1.9310    0.5623   -2.5511 C   0  0  0  0  0  0  0  0  0  0  0  0
    2.5372   -0.2731   -1.6138 C   0  0  0  0  0  0  0  0  0  0  0  0
    2.2278   -0.1332   -0.2597 C   0  0  0  0  0  0  0  0  0  0  0  0
    2.7590   -0.9558    0.7070 O   0  0  0  0  0  0  0  0  0  0  0  0
    4.1263   -1.1166    0.7208 C   0  0  0  0  0  0  0  0  0  0  0  0
    4.6043   -2.4060    0.9578 C   0  0  0  0  0  0  0  0  0  0  0  0
    5.9783   -2.6396    1.0184 C   0  0  0  0  0  0  0  0  0  0  0  0
    6.8727   -1.5809    0.8580 C   0  0  0  0  0  0  0  0  0  0  0  0
    6.3948   -0.2874    0.6440 C   0  0  0  0  0  0  0  0  0  0  0  0
    5.0206   -0.0515    0.5830 C   0  0  0  0  0  0  0  0  0  0  0  0
    1.2897    0.8131    0.1548 C   0  0  0  0  0  0  0  0  0  0  0  0
  1  2  1  0
  2  3  1  0
  2  4  1  0
  4  5  1  6
  5  6  2  3
  6  7  1  0
  6  8  1  0
  4  9  1  0
  9 10  1  1
 10 11  2  0
 10 12  1  0
 12 13  1  0
 13 14  1  0
 14 15  2  0
 15 16  1  0
 16 17  2  0
 17 18  1  0
 18 19  1  0
 19 20  1  0
 20 21  2  0
 21 22  1  0
 22 23  2  0
 23 24  1  0
 24 25  2  0
 18 26  2  0
  9  2  1  0
 26 14  1  0
 25 20  1  0
M  END
