
     RDKit          3D

 20 21  0  0  0  0  0  0  0  0999 V2000
    0.9030    2.3265   -2.1414 C   0  0  0  0  0  0  0  0  0  0  0  0
    0.3242    2.1875   -0.7478 C   0  0  0  0  0  0  0  0  0  0  0  0
   -0.5586    1.0778   -0.7360 O   0  0  0  0  0  0  0  0  0  0  0  0
   -1.0281    0.4039    0.6729 P   0  0  2  0  0  5  0  0  0  0  0  0
   -1.1591    1.6253    2.1959 S   0  0  0  0  0  0  0  0  0  0  0  0
    0.0523   -0.8086    0.8359 O   0  0  0  0  0  0  0  0  0  0  0  0
    1.4000   -0.6097    0.8754 C   0  0  0  0  0  0  0  0  0  0  0  0
    2.0271   -0.2085    2.0509 C   0  0  0  0  0  0  0  0  0  0  0  0
    3.4139   -0.0403    2.0702 C   0  0  0  0  0  0  0  0  0  0  0  0
    4.1692   -0.2922    0.9186 C   0  0  0  0  0  0  0  0  0  0  0  0
    5.5925   -0.1198    0.9386 C   0  0  0  0  0  0  0  0  0  0  0  0
    6.7443    0.0212    0.9503 N   0  0  0  0  0  0  0  0  0  0  0  0
    3.5303   -0.7209   -0.2508 C   0  0  0  0  0  0  0  0  0  0  0  0
    2.1442   -0.8883   -0.2687 C   0  0  0  0  0  0  0  0  0  0  0  0
   -2.5141   -0.4878    0.2022 C   0  0  0  0  0  0  0  0  0  0  0  0
   -2.8686   -1.6763    0.8605 C   0  0  0  0  0  0  0  0  0  0  0  0
   -4.0289   -2.3663    0.5066 C   0  0  0  0  0  0  0  0  0  0  0  0
   -4.8508   -1.8748   -0.5055 C   0  0  0  0  0  0  0  0  0  0  0  0
   -4.5159   -0.6929   -1.1632 C   0  0  0  0  0  0  0  0  0  0  0  0
   -3.3558   -0.0018   -0.8103 C   0  0  0  0  0  0  0  0  0  0  0  0
  1  2  1  0
  2  3  1  0
  4  3  1  6
  4  5  2  0
  4  6  1  0
  6  7  1  0
  7  8  2  0
  8  9  1  0
  9 10  2  0
 10 11  1  0
 11 12  3  0
 10 13  1  0
 13 14  2  0
  4 15  1  0
 15 16  2  0
 16 17  1  0
 17 18  2  0
 18 19  1  0
 19 20  2  0
 14  7  1  0
 20 15  1  0
M  END
