
     RDKit          3D

 26 28  0  0  0  0  0  0  0  0999 V2000
   -4.3492    0.1517    2.1420 C   0  0  0  0  0  0  0  0  0  0  0  0
   -3.1121   -0.1639    1.3362 C   0  0  0  0  0  0  0  0  0  0  0  0
   -1.8353    0.2697    2.0230 C   0  0  0  0  0  0  0  0  0  0  0  0
   -3.1215   -1.4482    0.5142 C   0  0  2  0  0  0  0  0  0  0  0  0
   -1.9309   -2.3263    0.4345 C   0  0  0  0  0  0  0  0  0  0  0  0
   -1.3286   -2.6941    1.4319 O   0  0  0  0  0  0  0  0  0  0  0  0
   -1.6549   -2.6750   -0.8476 O   0  0  0  0  0  0  0  0  0  0  0  0
   -0.4363   -3.4053   -1.0334 C   0  0  0  0  0  0  0  0  0  0  0  0
    0.6545   -2.4268   -1.3847 C   0  0  0  0  0  0  0  0  0  0  0  0
    0.8151   -1.9806   -2.7054 C   0  0  0  0  0  0  0  0  0  0  0  0
    1.7887   -1.0303   -3.0198 C   0  0  0  0  0  0  0  0  0  0  0  0
    2.6012   -0.5051   -2.0160 C   0  0  0  0  0  0  0  0  0  0  0  0
    2.4284   -0.9245   -0.6955 C   0  0  0  0  0  0  0  0  0  0  0  0
    3.2190   -0.4566    0.3292 O   0  0  0  0  0  0  0  0  0  0  0  0
    3.2836    0.9102    0.4836 C   0  0  0  0  0  0  0  0  0  0  0  0
    2.1432    1.7164    0.5230 C   0  0  0  0  0  0  0  0  0  0  0  0
    2.2729    3.0927    0.7104 C   0  0  0  0  0  0  0  0  0  0  0  0
    3.5383    3.6573    0.8782 C   0  0  0  0  0  0  0  0  0  0  0  0
    4.6746    2.8471    0.8619 C   0  0  0  0  0  0  0  0  0  0  0  0
    4.5473    1.4709    0.6715 C   0  0  0  0  0  0  0  0  0  0  0  0
    1.4751   -1.8927   -0.3811 C   0  0  0  0  0  0  0  0  0  0  0  0
   -3.2358   -0.1039   -0.1775 C   0  0  2  0  0  0  0  0  0  0  0  0
   -2.1515    0.4727   -0.9904 C   0  0  0  0  0  0  0  0  0  0  0  0
   -1.8936    1.7731   -1.2009 C   0  0  0  0  0  0  0  0  0  0  0  0
   -0.5825    2.2481   -2.2217 Cl  0  0  0  0  0  0  0  0  0  0  0  0
   -2.8415    3.0268   -0.4881 Cl  0  0  0  0  0  0  0  0  0  0  0  0
  1  2  1  0
  2  3  1  0
  2  4  1  0
  4  5  1  6
  5  6  2  0
  5  7  1  0
  7  8  1  0
  8  9  1  0
  9 10  2  0
 10 11  1  0
 11 12  2  0
 12 13  1  0
 13 14  1  0
 14 15  1  0
 15 16  2  0
 16 17  1  0
 17 18  2  0
 18 19  1  0
 19 20  2  0
 13 21  2  0
  4 22  1  0
 22 23  1  6
 23 24  2  3
 24 25  1  0
 24 26  1  0
 22  2  1  0
 21  9  1  0
 20 15  1  0
M  END
