
     RDKit          3D

 23 24  0  0  0  0  0  0  0  0999 V2000
    4.9382   -2.2257   -0.8748 F   0  0  0  0  0  0  0  0  0  0  0  0
    3.6797   -1.9286   -1.2969 C   0  0  0  0  0  0  0  0  0  0  0  0
    3.8097   -1.4017   -2.5450 F   0  0  0  0  0  0  0  0  0  0  0  0
    2.9944   -0.9439   -0.3462 C   0  0  0  0  0  0  0  0  0  0  0  0
    2.9237   -1.4731    0.9048 F   0  0  0  0  0  0  0  0  0  0  0  0
    3.6798    0.2208   -0.2518 F   0  0  0  0  0  0  0  0  0  0  0  0
    1.6547   -0.6578   -0.7498 O   0  0  0  0  0  0  0  0  0  0  0  0
    1.0680    0.3651    0.0585 C   0  0  0  0  0  0  0  0  0  0  0  0
   -0.4369    0.4719   -0.2819 C   0  0  2  0  0  0  0  0  0  0  0  0
   -1.1312    1.5710    0.5391 C   0  0  0  0  0  0  0  0  0  0  0  0
   -0.6563    2.9000    0.2288 N   0  0  0  0  0  0  0  0  0  0  0  0
   -1.1066    3.7440   -0.7358 C   0  0  0  0  0  0  0  0  0  0  0  0
   -0.4166    4.8603   -0.6926 N   0  0  0  0  0  0  0  0  0  0  0  0
    0.4535    4.6454    0.3385 C   0  0  0  0  0  0  0  0  0  0  0  0
    0.3440    3.4544    0.9350 N   0  0  0  0  0  0  0  0  0  0  0  0
   -1.2155   -0.8383   -0.1063 C   0  0  0  0  0  0  0  0  0  0  0  0
   -0.9170   -1.7176    0.9525 C   0  0  0  0  0  0  0  0  0  0  0  0
   -1.6286   -2.9085    1.1236 C   0  0  0  0  0  0  0  0  0  0  0  0
   -2.6577   -3.2343    0.2474 C   0  0  0  0  0  0  0  0  0  0  0  0
   -3.5309   -4.7001    0.4621 Cl  0  0  0  0  0  0  0  0  0  0  0  0
   -2.9903   -2.3765   -0.7943 C   0  0  0  0  0  0  0  0  0  0  0  0
   -2.2797   -1.1846   -0.9665 C   0  0  0  0  0  0  0  0  0  0  0  0
   -2.7904   -0.1505   -2.2565 Cl  0  0  0  0  0  0  0  0  0  0  0  0
  1  2  1  0
  2  3  1  0
  2  4  1  0
  4  5  1  0
  4  6  1  0
  4  7  1  0
  7  8  1  0
  9  8  1  1
  9 10  1  0
 10 11  1  0
 11 12  1  0
 12 13  2  0
 13 14  1  0
 14 15  2  0
  9 16  1  0
 16 17  2  0
 17 18  1  0
 18 19  2  0
 19 20  1  0
 19 21  1  0
 21 22  2  0
 22 23  1  0
 15 11  1  0
 22 16  1  0
M  END
