
     RDKit          3D

 21 22  0  0  0  0  0  0  0  0999 V2000
    4.9800   -0.5731    1.3547 C   0  0  0  0  0  0  0  0  0  0  0  0
    3.8388   -1.2901    0.6606 C   0  0  0  0  0  0  0  0  0  0  0  0
    2.9965   -0.3028    0.0507 O   0  0  0  0  0  0  0  0  0  0  0  0
    1.9227   -0.8068   -0.6170 C   0  0  0  0  0  0  0  0  0  0  0  0
    1.6587   -2.0012   -0.7001 O   0  0  0  0  0  0  0  0  0  0  0  0
    1.0454    0.2955   -1.2010 C   0  0  1  0  0  0  0  0  0  0  0  0
    1.8154    1.5304   -1.6477 C   0  0  0  0  0  0  0  0  0  0  0  0
    0.3136   -0.1988   -2.3197 O   0  0  0  0  0  0  0  0  0  0  0  0
   -0.9910   -0.3705   -1.9609 C   0  0  0  0  0  0  0  0  0  0  0  0
   -1.7782   -0.8861   -2.7385 O   0  0  0  0  0  0  0  0  0  0  0  0
   -1.2189    0.1227   -0.7083 N   0  0  0  0  0  0  0  0  0  0  0  0
   -2.4819    0.1513   -0.0324 C   0  0  0  0  0  0  0  0  0  0  0  0
   -3.6803   -0.1901   -0.6840 C   0  0  0  0  0  0  0  0  0  0  0  0
   -4.9099   -0.1611   -0.0135 C   0  0  0  0  0  0  0  0  0  0  0  0
   -6.3512   -0.5779   -0.8586 Cl  0  0  0  0  0  0  0  0  0  0  0  0
   -4.9848    0.2029    1.3226 C   0  0  0  0  0  0  0  0  0  0  0  0
   -3.8141    0.5381    1.9855 C   0  0  0  0  0  0  0  0  0  0  0  0
   -3.8795    0.9839    3.6475 Cl  0  0  0  0  0  0  0  0  0  0  0  0
   -2.5804    0.5138    1.3231 C   0  0  0  0  0  0  0  0  0  0  0  0
   -0.0438    0.6365   -0.2253 C   0  0  0  0  0  0  0  0  0  0  0  0
    0.1520    1.2811    0.7971 O   0  0  0  0  0  0  0  0  0  0  0  0
  1  2  1  0
  2  3  1  0
  3  4  1  0
  4  5  2  0
  4  6  1  0
  6  7  1  6
  6  8  1  0
  8  9  1  0
  9 10  2  0
  9 11  1  0
 11 12  1  0
 12 13  2  0
 13 14  1  0
 14 15  1  0
 14 16  2  0
 16 17  1  0
 17 18  1  0
 17 19  2  0
 11 20  1  0
 20 21  2  0
 20  6  1  0
 19 12  1  0
M  END
