
     RDKit          3D

 19 20  0  0  0  0  0  0  0  0999 V2000
   -0.4839    1.8517    1.6877 O   0  0  0  0  0  0  0  0  0  0  0  0
   -1.1024    1.0945    0.9541 C   0  0  0  0  0  0  0  0  0  0  0  0
   -2.6218    1.0265    0.9052 C   0  0  2  0  0  0  0  0  0  0  0  0
   -3.1581    0.0542    2.2986 Cl  0  0  0  0  0  0  0  0  0  0  0  0
   -2.8704    0.3692   -0.4518 C   0  0  2  0  0  0  0  0  0  0  0  0
   -4.2032   -0.3293   -0.6634 C   0  0  0  0  0  0  0  0  0  0  0  0
   -5.5520    0.8223   -0.5372 Cl  0  0  0  0  0  0  0  0  0  0  0  0
   -1.6868   -0.5767   -0.5871 C   0  0  0  0  0  0  0  0  0  0  0  0
   -0.6008    0.1241    0.0617 N   0  0  0  0  0  0  0  0  0  0  0  0
    0.7636   -0.2365   -0.1177 C   0  0  0  0  0  0  0  0  0  0  0  0
    1.1107   -1.3595   -0.8854 C   0  0  0  0  0  0  0  0  0  0  0  0
    2.4463   -1.7309   -1.0714 C   0  0  0  0  0  0  0  0  0  0  0  0
    3.4665   -0.9828   -0.4940 C   0  0  0  0  0  0  0  0  0  0  0  0
    3.1584    0.1469    0.2711 C   0  0  0  0  0  0  0  0  0  0  0  0
    4.2470    0.9675    0.9190 C   0  0  0  0  0  0  0  0  0  0  0  0
    4.0620    2.3080    0.7679 F   0  0  0  0  0  0  0  0  0  0  0  0
    4.3392    0.7462    2.2587 F   0  0  0  0  0  0  0  0  0  0  0  0
    5.4870    0.7085    0.4139 F   0  0  0  0  0  0  0  0  0  0  0  0
    1.8073    0.5032    0.4550 C   0  0  0  0  0  0  0  0  0  0  0  0
  1  2  2  0
  2  3  1  0
  3  4  1  1
  3  5  1  0
  5  6  1  1
  6  7  1  0
  5  8  1  0
  8  9  1  0
  9 10  1  0
 10 11  2  0
 11 12  1  0
 12 13  2  0
 13 14  1  0
 14 15  1  0
 15 16  1  0
 15 17  1  0
 15 18  1  0
 14 19  2  0
  9  2  1  0
 19 10  1  0
M  END
