
     RDKit          3D

 24 25  0  0  0  0  0  0  0  0999 V2000
   -1.3246    4.5626    1.1756 C   0  0  0  0  0  0  0  0  0  0  0  0
   -1.7489    3.2220    1.4240 O   0  0  0  0  0  0  0  0  0  0  0  0
   -1.3114    2.3193    0.4992 C   0  0  0  0  0  0  0  0  0  0  0  0
   -0.6950    2.6264   -0.5175 O   0  0  0  0  0  0  0  0  0  0  0  0
   -1.7797    0.8877    0.8350 C   0  0  2  0  0  0  0  0  0  0  0  0
   -2.1172    0.6697    2.3124 C   0  0  0  0  0  0  0  0  0  0  0  0
   -0.8002   -0.0950    0.3079 N   0  0  0  0  0  0  0  0  0  0  0  0
    0.5153   -0.0535    0.7789 C   0  0  0  0  0  0  0  0  0  0  0  0
    0.8511    0.7068    1.6911 O   0  0  0  0  0  0  0  0  0  0  0  0
    1.5391   -0.9482    0.0777 C   0  0  0  0  0  0  0  0  0  0  0  0
    2.8114   -0.2173   -0.2933 C   0  0  0  0  0  0  0  0  0  0  0  0
    2.7672    0.9090   -1.1288 C   0  0  0  0  0  0  0  0  0  0  0  0
    3.9427    1.5679   -1.4918 C   0  0  0  0  0  0  0  0  0  0  0  0
    5.1734    1.1054   -1.0306 C   0  0  0  0  0  0  0  0  0  0  0  0
    5.2300   -0.0161   -0.2053 C   0  0  0  0  0  0  0  0  0  0  0  0
    4.0555   -0.6765    0.1605 C   0  0  0  0  0  0  0  0  0  0  0  0
   -1.3393   -1.2236   -0.3770 C   0  0  0  0  0  0  0  0  0  0  0  0
   -1.4018   -2.4935    0.2432 C   0  0  0  0  0  0  0  0  0  0  0  0
   -0.9115   -2.7878    1.6362 C   0  0  0  0  0  0  0  0  0  0  0  0
   -1.9492   -3.5742   -0.4708 C   0  0  0  0  0  0  0  0  0  0  0  0
   -2.4456   -3.4061   -1.7593 C   0  0  0  0  0  0  0  0  0  0  0  0
   -2.3856   -2.1568   -2.3666 C   0  0  0  0  0  0  0  0  0  0  0  0
   -1.8224   -1.0593   -1.6970 C   0  0  0  0  0  0  0  0  0  0  0  0
   -1.7241    0.2482   -2.4379 C   0  0  0  0  0  0  0  0  0  0  0  0
  1  2  1  0
  2  3  1  0
  3  4  2  0
  3  5  1  0
  5  6  1  1
  5  7  1  0
  7  8  1  0
  8  9  2  0
  8 10  1  0
 10 11  1  0
 11 12  2  0
 12 13  1  0
 13 14  2  0
 14 15  1  0
 15 16  2  0
  7 17  1  0
 17 18  2  0
 18 19  1  0
 18 20  1  0
 20 21  2  0
 21 22  1  0
 22 23  2  0
 23 24  1  0
 16 11  1  0
 23 17  1  0
M  END
