
     RDKit          3D

 23 24  0  0  0  0  0  0  0  0999 V2000
    6.3390    2.9968   -0.2324 C   0  0  0  0  0  0  0  0  0  0  0  0
    5.5017    1.7627   -0.5320 C   0  0  0  0  0  0  0  0  0  0  0  0
    4.0585    2.1385   -0.8706 C   0  0  0  0  0  0  0  0  0  0  0  0
    3.2000    0.9426   -1.2962 C   0  0  0  0  0  0  0  0  0  0  0  0
    3.0140   -0.0969   -0.1818 C   0  0  0  0  0  0  0  0  0  0  0  0
    1.9487   -1.1623   -0.4877 C   0  0  2  0  0  0  0  0  0  0  0  0
    2.2197   -1.9239   -1.7796 C   0  0  0  0  0  0  0  0  0  0  0  0
    0.6574   -0.5353   -0.6198 O   0  0  0  0  0  0  0  0  0  0  0  0
   -0.0554   -0.3733    0.5361 C   0  0  0  0  0  0  0  0  0  0  0  0
    0.3146   -0.7436    1.6423 O   0  0  0  0  0  0  0  0  0  0  0  0
   -1.3687    0.3322    0.2267 C   0  0  0  0  0  0  0  0  0  0  0  0
   -2.1531    0.5085    1.4078 O   0  0  0  0  0  0  0  0  0  0  0  0
   -3.1894   -0.3960    1.4808 C   0  0  0  0  0  0  0  0  0  0  0  0
   -3.0926   -1.3421    2.5025 C   0  0  0  0  0  0  0  0  0  0  0  0
   -4.1100   -2.2685    2.6735 C   0  0  0  0  0  0  0  0  0  0  0  0
   -5.2230   -2.2299    1.8346 C   0  0  0  0  0  0  0  0  0  0  0  0
   -6.4502   -3.4216    2.1146 Cl  0  0  0  0  0  0  0  0  0  0  0  0
   -5.3417   -1.2569    0.8061 C   0  0  0  0  0  0  0  0  0  0  0  0
   -6.4500   -1.1599   -0.0672 C   0  0  0  0  0  0  0  0  0  0  0  0
   -6.5026   -0.1747   -1.0432 C   0  0  0  0  0  0  0  0  0  0  0  0
   -5.4428    0.6974   -1.1332 C   0  0  0  0  0  0  0  0  0  0  0  0
   -4.3608    0.6413   -0.3288 N   0  0  0  0  0  0  0  0  0  0  0  0
   -4.3030   -0.3144    0.6289 C   0  0  0  0  0  0  0  0  0  0  0  0
  1  2  1  0
  2  3  1  0
  3  4  1  0
  4  5  1  0
  5  6  1  0
  6  7  1  6
  6  8  1  0
  8  9  1  0
  9 10  2  0
  9 11  1  0
 11 12  1  0
 12 13  1  0
 13 14  2  0
 14 15  1  0
 15 16  2  0
 16 17  1  0
 16 18  1  0
 18 19  2  0
 19 20  1  0
 20 21  2  0
 21 22  1  0
 22 23  2  0
 23 13  1  0
 23 18  1  0
M  END
