
     RDKit          3D

 20 21  0  0  0  0  0  0  0  0999 V2000
   -2.2474   -0.4545   -1.4510 C   0  0  0  0  0  0  0  0  0  0  0  0
   -2.1395   -0.4383    0.0850 C   0  0  0  0  0  0  0  0  0  0  0  0
   -3.0766    0.6434    0.6511 C   0  0  0  0  0  0  0  0  0  0  0  0
   -2.6722   -1.8030    0.5932 C   0  0  0  0  0  0  0  0  0  0  0  0
   -0.6482   -0.2683    0.5464 C   0  0  2  0  0  0  0  0  0  0  0  0
   -0.5496   -0.1841    1.9717 O   0  0  0  0  0  0  0  0  0  0  0  0
    0.2182    0.8493   -0.1208 C   0  0  2  0  0  0  0  0  0  0  0  0
    1.6734    0.8740    0.4073 C   0  0  0  0  0  0  0  0  0  0  0  0
    2.4710   -0.3588    0.0425 C   0  0  0  0  0  0  0  0  0  0  0  0
    2.7095   -1.3541    1.0009 C   0  0  0  0  0  0  0  0  0  0  0  0
    3.4303   -2.5017    0.6649 C   0  0  0  0  0  0  0  0  0  0  0  0
    3.9174   -2.6578   -0.6305 C   0  0  0  0  0  0  0  0  0  0  0  0
    4.8029   -4.0730   -1.0465 Cl  0  0  0  0  0  0  0  0  0  0  0  0
    3.6917   -1.6752   -1.5922 C   0  0  0  0  0  0  0  0  0  0  0  0
    2.9703   -0.5272   -1.2569 C   0  0  0  0  0  0  0  0  0  0  0  0
   -0.3327    2.1960   -0.0404 N   0  0  0  0  0  0  0  0  0  0  0  0
   -0.6719    3.0051   -1.0861 C   0  0  0  0  0  0  0  0  0  0  0  0
   -1.0446    4.1801   -0.6356 N   0  0  0  0  0  0  0  0  0  0  0  0
   -0.8847    4.0527    0.7139 C   0  0  0  0  0  0  0  0  0  0  0  0
   -0.4320    2.8662    1.1233 N   0  0  0  0  0  0  0  0  0  0  0  0
  1  2  1  0
  2  3  1  0
  2  4  1  0
  2  5  1  0
  5  6  1  1
  5  7  1  0
  7  8  1  1
  8  9  1  0
  9 10  2  0
 10 11  1  0
 11 12  2  0
 12 13  1  0
 12 14  1  0
 14 15  2  0
  7 16  1  0
 16 17  1  0
 17 18  2  0
 18 19  1  0
 19 20  2  0
 15  9  1  0
 20 16  1  0
M  END
