
     RDKit          3D

 25 27  0  0  0  0  0  0  0  0999 V2000
   -3.5151   -2.5389    0.3283 C   0  0  0  0  0  0  0  0  0  0  0  0
   -3.6052   -1.4711   -0.7796 C   0  0  0  0  0  0  0  0  0  0  0  0
   -5.0037   -1.5815   -1.4292 C   0  0  0  0  0  0  0  0  0  0  0  0
   -2.5582   -1.7944   -1.8601 C   0  0  0  0  0  0  0  0  0  0  0  0
   -3.4350   -0.0361   -0.1751 C   0  0  2  0  0  0  0  0  0  0  0  0
   -3.7036    0.9434   -1.1991 O   0  0  0  0  0  0  0  0  0  0  0  0
   -2.0623    0.2609    0.4909 C   0  0  1  0  0  0  0  0  0  0  0  0
   -1.1090    0.5705   -0.5434 O   0  0  0  0  0  0  0  0  0  0  0  0
    0.2194    0.3644   -0.2973 C   0  0  0  0  0  0  0  0  0  0  0  0
    1.0346    0.4467   -1.4274 C   0  0  0  0  0  0  0  0  0  0  0  0
    2.4169    0.2595   -1.3273 C   0  0  0  0  0  0  0  0  0  0  0  0
    3.0198   -0.0069   -0.0902 C   0  0  0  0  0  0  0  0  0  0  0  0
    4.4746   -0.2013    0.0215 C   0  0  0  0  0  0  0  0  0  0  0  0
    5.1422   -1.1473   -0.7745 C   0  0  0  0  0  0  0  0  0  0  0  0
    6.5234   -1.3328   -0.6685 C   0  0  0  0  0  0  0  0  0  0  0  0
    7.2615   -0.5735    0.2357 C   0  0  0  0  0  0  0  0  0  0  0  0
    6.6200    0.3702    1.0336 C   0  0  0  0  0  0  0  0  0  0  0  0
    5.2386    0.5537    0.9272 C   0  0  0  0  0  0  0  0  0  0  0  0
    2.1896   -0.0758    1.0393 C   0  0  0  0  0  0  0  0  0  0  0  0
    0.8038    0.1090    0.9405 C   0  0  0  0  0  0  0  0  0  0  0  0
   -2.1805    1.3958    1.4033 N   0  0  0  0  0  0  0  0  0  0  0  0
   -2.2626    2.7201    1.1011 C   0  0  0  0  0  0  0  0  0  0  0  0
   -2.3517    3.4194    2.2094 N   0  0  0  0  0  0  0  0  0  0  0  0
   -2.3244    2.4617    3.1812 C   0  0  0  0  0  0  0  0  0  0  0  0
   -2.2204    1.2040    2.7420 N   0  0  0  0  0  0  0  0  0  0  0  0
  1  2  1  0
  2  3  1  0
  2  4  1  0
  2  5  1  0
  5  6  1  6
  5  7  1  0
  7  8  1  6
  8  9  1  0
  9 10  2  0
 10 11  1  0
 11 12  2  0
 12 13  1  0
 13 14  2  0
 14 15  1  0
 15 16  2  0
 16 17  1  0
 17 18  2  0
 12 19  1  0
 19 20  2  0
  7 21  1  0
 21 22  1  0
 22 23  2  0
 23 24  1  0
 24 25  2  0
 20  9  1  0
 25 21  1  0
 18 13  1  0
M  END
