
     RDKit          3D

 21 21  0  0  0  0  0  0  0  0999 V2000
    0.2603    2.8897   -1.5903 C   0  0  0  0  0  0  0  0  0  0  0  0
    0.4987    2.3588   -0.1919 C   0  0  0  0  0  0  0  0  0  0  0  0
    0.0031    1.0344   -0.1260 O   0  0  0  0  0  0  0  0  0  0  0  0
    0.5404    0.0108    1.0123 P   0  0  2  0  0  5  0  0  0  0  0  0
    0.8172    0.7765    2.7779 S   0  0  0  0  0  0  0  0  0  0  0  0
    1.7431   -0.8374    0.2730 N   0  0  0  0  0  0  0  0  0  0  0  0
    2.9223   -0.2293   -0.3350 C   0  0  1  0  0  0  0  0  0  0  0  0
    3.8695    0.3552    0.7113 C   0  0  0  0  0  0  0  0  0  0  0  0
    3.6462   -1.2619   -1.2272 C   0  0  0  0  0  0  0  0  0  0  0  0
    4.1692   -2.4951   -0.5001 C   0  0  0  0  0  0  0  0  0  0  0  0
   -0.6579   -1.0994    1.0132 O   0  0  0  0  0  0  0  0  0  0  0  0
   -1.9376   -0.7835    0.6541 C   0  0  0  0  0  0  0  0  0  0  0  0
   -2.7377   -0.0827    1.5589 C   0  0  0  0  0  0  0  0  0  0  0  0
   -4.0623    0.2433    1.2318 C   0  0  0  0  0  0  0  0  0  0  0  0
   -4.9201    0.9784    2.2207 C   0  0  0  0  0  0  0  0  0  0  0  0
   -4.5912   -0.1735    0.0030 C   0  0  0  0  0  0  0  0  0  0  0  0
   -3.8029   -0.8904   -0.8997 C   0  0  0  0  0  0  0  0  0  0  0  0
   -2.4752   -1.1952   -0.5688 C   0  0  0  0  0  0  0  0  0  0  0  0
   -1.6784   -1.9588   -1.5281 N   0  0  0  0  0  4  0  0  0  0  0  0
   -2.2784   -2.7713   -2.2465 O   0  0  0  0  0  0  0  0  0  0  0  0
   -0.4573   -1.7419   -1.5844 O   0  0  0  0  0  1  0  0  0  0  0  0
  1  2  1  0
  2  3  1  0
  3  4  1  0
  4  5  2  0
  4  6  1  6
  6  7  1  0
  7  8  1  1
  7  9  1  0
  9 10  1  0
  4 11  1  0
 11 12  1  0
 12 13  2  0
 13 14  1  0
 14 15  1  0
 14 16  2  0
 16 17  1  0
 17 18  2  0
 18 19  1  0
 19 20  2  0
 19 21  1  0
 18 12  1  0
M  CHG  2  19   1  21  -1
M  END
