
     RDKit          3D

 20 21  0  0  0  0  0  0  0  0999 V2000
   -2.9513   -0.0245    0.1213 C   0  0  0  0  0  0  0  0  0  0  0  0
   -1.7889   -0.8729   -0.4318 C   0  0  0  0  0  0  0  0  0  0  0  0
   -1.1971   -1.7069    0.7199 C   0  0  0  0  0  0  0  0  0  0  0  0
   -2.3722   -1.8551   -1.4727 C   0  0  0  0  0  0  0  0  0  0  0  0
   -0.7250    0.0456   -1.1282 C   0  0  2  0  0  0  0  0  0  0  0  0
    0.2427   -0.7332   -1.8413 O   0  0  0  0  0  0  0  0  0  0  0  0
   -0.0438    1.1149   -0.2157 C   0  0  1  0  0  0  0  0  0  0  0  0
    1.5019    1.1168   -0.1979 C   0  0  0  0  0  0  0  0  0  0  0  0
    2.1260   -0.0196    0.5819 C   0  0  0  0  0  0  0  0  0  0  0  0
    1.9558   -0.1086    1.9715 C   0  0  0  0  0  0  0  0  0  0  0  0
    2.5324   -1.1580    2.6906 C   0  0  0  0  0  0  0  0  0  0  0  0
    3.2921   -2.1176    2.0265 C   0  0  0  0  0  0  0  0  0  0  0  0
    3.9990   -3.4120    2.9116 Cl  0  0  0  0  0  0  0  0  0  0  0  0
    3.4863   -2.0326    0.6501 C   0  0  0  0  0  0  0  0  0  0  0  0
    2.9101   -0.9830   -0.0689 C   0  0  0  0  0  0  0  0  0  0  0  0
   -0.5087    2.4551   -0.5952 N   0  0  0  0  0  0  0  0  0  0  0  0
   -0.3007    3.1242   -1.7632 C   0  0  0  0  0  0  0  0  0  0  0  0
   -0.8655    4.3072   -1.6967 N   0  0  0  0  0  0  0  0  0  0  0  0
   -1.4126    4.3171   -0.4458 C   0  0  0  0  0  0  0  0  0  0  0  0
   -1.2182    3.2058    0.2694 N   0  0  0  0  0  0  0  0  0  0  0  0
  1  2  1  0
  2  3  1  0
  2  4  1  0
  2  5  1  0
  5  6  1  1
  5  7  1  0
  7  8  1  6
  8  9  1  0
  9 10  2  0
 10 11  1  0
 11 12  2  0
 12 13  1  0
 12 14  1  0
 14 15  2  0
  7 16  1  0
 16 17  1  0
 17 18  2  0
 18 19  1  0
 19 20  2  0
 15  9  1  0
 20 16  1  0
M  END
