
     RDKit          3D

 19 20  0  0  0  0  0  0  0  0999 V2000
   -1.4085   -2.7775   -0.4052 O   0  0  0  0  0  0  0  0  0  0  0  0
   -1.6079   -1.5849   -0.2250 C   0  0  0  0  0  0  0  0  0  0  0  0
   -2.9972   -0.9845   -0.0866 C   0  0  1  0  0  0  0  0  0  0  0  0
   -3.5726   -1.3138    1.5654 Cl  0  0  0  0  0  0  0  0  0  0  0  0
   -2.7535    0.4928   -0.3866 C   0  0  1  0  0  0  0  0  0  0  0  0
   -3.7919    1.4565    0.1664 C   0  0  0  0  0  0  0  0  0  0  0  0
   -3.4706    3.1185   -0.3920 Cl  0  0  0  0  0  0  0  0  0  0  0  0
   -1.3470    0.7197    0.1502 C   0  0  0  0  0  0  0  0  0  0  0  0
   -0.6728   -0.5429   -0.0679 N   0  0  0  0  0  0  0  0  0  0  0  0
    0.7426   -0.6787   -0.0064 C   0  0  0  0  0  0  0  0  0  0  0  0
    1.3832   -1.8919   -0.2845 C   0  0  0  0  0  0  0  0  0  0  0  0
    2.7758   -2.0129   -0.2197 C   0  0  0  0  0  0  0  0  0  0  0  0
    3.5604   -0.9175    0.1243 C   0  0  0  0  0  0  0  0  0  0  0  0
    2.9571    0.3128    0.4017 C   0  0  0  0  0  0  0  0  0  0  0  0
    3.7887    1.5057    0.8024 C   0  0  0  0  0  0  0  0  0  0  0  0
    3.8802    1.6416    2.1537 F   0  0  0  0  0  0  0  0  0  0  0  0
    5.0692    1.4516    0.3419 F   0  0  0  0  0  0  0  0  0  0  0  0
    3.2787    2.6831    0.3431 F   0  0  0  0  0  0  0  0  0  0  0  0
    1.5526    0.4161    0.3404 C   0  0  0  0  0  0  0  0  0  0  0  0
  1  2  2  0
  2  3  1  0
  3  4  1  1
  3  5  1  0
  5  6  1  1
  6  7  1  0
  5  8  1  0
  8  9  1  0
  9 10  1  0
 10 11  2  0
 11 12  1  0
 12 13  2  0
 13 14  1  0
 14 15  1  0
 15 16  1  0
 15 17  1  0
 15 18  1  0
 14 19  2  0
  9  2  1  0
 19 10  1  0
M  END
