
     RDKit          3D

 25 27  0  0  0  0  0  0  0  0999 V2000
   -4.5836   -0.5389    0.8968 C   0  0  0  0  0  0  0  0  0  0  0  0
   -3.2512   -0.1111    1.5361 C   0  0  0  0  0  0  0  0  0  0  0  0
   -3.5923    0.6309    2.8518 C   0  0  0  0  0  0  0  0  0  0  0  0
   -2.4487   -1.3734    1.8997 C   0  0  0  0  0  0  0  0  0  0  0  0
   -2.4091    0.8483    0.6297 C   0  0  2  0  0  0  0  0  0  0  0  0
   -3.1627    2.0444    0.3586 O   0  0  0  0  0  0  0  0  0  0  0  0
   -1.7629    0.2489   -0.6602 C   0  0  2  0  0  0  0  0  0  0  0  0
   -0.8543    1.2157   -1.2369 O   0  0  0  0  0  0  0  0  0  0  0  0
    0.4499    0.9008   -0.9792 C   0  0  0  0  0  0  0  0  0  0  0  0
    1.1042   -0.0693   -1.7333 C   0  0  0  0  0  0  0  0  0  0  0  0
    2.4432   -0.3639   -1.4638 C   0  0  0  0  0  0  0  0  0  0  0  0
    3.1476    0.3199   -0.4567 C   0  0  0  0  0  0  0  0  0  0  0  0
    4.5585    0.0084   -0.1763 C   0  0  0  0  0  0  0  0  0  0  0  0
    4.9645   -1.3030    0.1230 C   0  0  0  0  0  0  0  0  0  0  0  0
    6.3041   -1.5986    0.3911 C   0  0  0  0  0  0  0  0  0  0  0  0
    7.2610   -0.5871    0.3624 C   0  0  0  0  0  0  0  0  0  0  0  0
    6.8803    0.7197    0.0663 C   0  0  0  0  0  0  0  0  0  0  0  0
    5.5403    1.0141   -0.2002 C   0  0  0  0  0  0  0  0  0  0  0  0
    2.4700    1.3183    0.2649 C   0  0  0  0  0  0  0  0  0  0  0  0
    1.1308    1.6153   -0.0002 C   0  0  0  0  0  0  0  0  0  0  0  0
   -2.7147   -0.0939   -1.7073 N   0  0  0  0  0  0  0  0  0  0  0  0
   -2.7186   -1.2181   -2.4759 C   0  0  0  0  0  0  0  0  0  0  0  0
   -3.7248   -1.1730   -3.3177 N   0  0  0  0  0  0  0  0  0  0  0  0
   -4.3094    0.0294   -3.0381 C   0  0  0  0  0  0  0  0  0  0  0  0
   -3.7358    0.7269   -2.0533 N   0  0  0  0  0  0  0  0  0  0  0  0
  1  2  1  0
  2  3  1  0
  2  4  1  0
  2  5  1  0
  5  6  1  6
  5  7  1  0
  7  8  1  6
  8  9  1  0
  9 10  2  0
 10 11  1  0
 11 12  2  0
 12 13  1  0
 13 14  2  0
 14 15  1  0
 15 16  2  0
 16 17  1  0
 17 18  2  0
 12 19  1  0
 19 20  2  0
  7 21  1  0
 21 22  1  0
 22 23  2  0
 23 24  1  0
 24 25  2  0
 20  9  1  0
 25 21  1  0
 18 13  1  0
M  END
