
     RDKit          3D

 20 21  0  0  0  0  0  0  0  0999 V2000
   -1.7330   -2.0922   -1.0246 C   0  0  0  0  0  0  0  0  0  0  0  0
   -2.3715   -0.6939   -0.9797 C   0  0  0  0  0  0  0  0  0  0  0  0
   -3.8966   -0.8675   -0.7956 C   0  0  0  0  0  0  0  0  0  0  0  0
   -2.1450   -0.0095   -2.3449 C   0  0  0  0  0  0  0  0  0  0  0  0
   -1.8029    0.2016    0.1765 C   0  0  1  0  0  0  0  0  0  0  0  0
   -2.2109   -0.2689    1.4704 O   0  0  0  0  0  0  0  0  0  0  0  0
   -0.2626    0.4321    0.1741 C   0  0  2  0  0  0  0  0  0  0  0  0
    0.5171   -0.5453    1.0824 C   0  0  0  0  0  0  0  0  0  0  0  0
    2.0066   -0.5554    0.8126 C   0  0  0  0  0  0  0  0  0  0  0  0
    2.5347   -1.3425   -0.2212 C   0  0  0  0  0  0  0  0  0  0  0  0
    3.9069   -1.3398   -0.4820 C   0  0  0  0  0  0  0  0  0  0  0  0
    4.7570   -0.5484    0.2868 C   0  0  0  0  0  0  0  0  0  0  0  0
    6.4471   -0.5464   -0.0355 Cl  0  0  0  0  0  0  0  0  0  0  0  0
    4.2466    0.2406    1.3144 C   0  0  0  0  0  0  0  0  0  0  0  0
    2.8748    0.2375    1.5769 C   0  0  0  0  0  0  0  0  0  0  0  0
    0.0156    1.8205    0.5517 N   0  0  0  0  0  0  0  0  0  0  0  0
   -0.2426    2.4456    1.7343 C   0  0  0  0  0  0  0  0  0  0  0  0
    0.1638    3.6924    1.6700 N   0  0  0  0  0  0  0  0  0  0  0  0
    0.6460    3.7916    0.3962 C   0  0  0  0  0  0  0  0  0  0  0  0
    0.5613    2.6770   -0.3343 N   0  0  0  0  0  0  0  0  0  0  0  0
  1  2  1  0
  2  3  1  0
  2  4  1  0
  2  5  1  0
  5  6  1  1
  5  7  1  0
  7  8  1  1
  8  9  1  0
  9 10  2  0
 10 11  1  0
 11 12  2  0
 12 13  1  0
 12 14  1  0
 14 15  2  0
  7 16  1  0
 16 17  1  0
 17 18  2  0
 18 19  1  0
 19 20  2  0
 15  9  1  0
 20 16  1  0
M  END
