
     RDKit          3D

 20 21  0  0  0  0  0  0  0  0999 V2000
   -3.9361   -1.7540    0.5762 C   0  0  0  0  0  0  0  0  0  0  0  0
   -2.9855   -0.5687    0.7015 C   0  0  0  0  0  0  0  0  0  0  0  0
   -2.7065    0.0805   -0.5890 N   0  0  0  0  0  0  0  0  0  0  0  0
   -3.7824    0.8874   -1.1729 C   0  0  0  0  0  0  0  0  0  0  0  0
   -3.7595    2.3328   -0.6987 C   0  0  0  0  0  0  0  0  0  0  0  0
   -1.4445    0.1834   -1.1864 C   0  0  0  0  0  0  0  0  0  0  0  0
   -1.2761    0.9363   -2.1469 O   0  0  0  0  0  0  0  0  0  0  0  0
   -0.2631   -0.6480   -0.6321 C   0  0  1  0  0  0  0  0  0  0  0  0
   -0.4246   -2.1115   -1.0272 C   0  0  0  0  0  0  0  0  0  0  0  0
    0.9904   -0.2126   -1.1908 O   0  0  0  0  0  0  0  0  0  0  0  0
    1.7339    0.5088   -0.2875 C   0  0  0  0  0  0  0  0  0  0  0  0
    1.2813    1.7579    0.1444 C   0  0  0  0  0  0  0  0  0  0  0  0
    2.0143    2.4729    1.0831 C   0  0  0  0  0  0  0  0  0  0  0  0
    3.2091    1.9503    1.5728 C   0  0  0  0  0  0  0  0  0  0  0  0
    3.6943    0.7109    1.1247 C   0  0  0  0  0  0  0  0  0  0  0  0
    4.8999    0.1879    1.6189 C   0  0  0  0  0  0  0  0  0  0  0  0
    5.3850   -1.0421    1.1715 C   0  0  0  0  0  0  0  0  0  0  0  0
    4.6765   -1.7600    0.2175 C   0  0  0  0  0  0  0  0  0  0  0  0
    3.4766   -1.2540   -0.2830 C   0  0  0  0  0  0  0  0  0  0  0  0
    2.9588   -0.0218    0.1661 C   0  0  0  0  0  0  0  0  0  0  0  0
  1  2  1  0
  2  3  1  0
  3  4  1  0
  4  5  1  0
  3  6  1  0
  6  7  2  0
  6  8  1  0
  8  9  1  6
  8 10  1  0
 10 11  1  0
 11 12  2  0
 12 13  1  0
 13 14  2  0
 14 15  1  0
 15 16  2  0
 16 17  1  0
 17 18  2  0
 18 19  1  0
 19 20  2  0
 20 11  1  0
 20 15  1  0
M  END
