
     RDKit          3D

 24 25  0  0  0  0  0  0  0  0999 V2000
   -2.1679    3.8101    1.5355 C   0  0  0  0  0  0  0  0  0  0  0  0
   -2.3240    2.7771    0.5609 O   0  0  0  0  0  0  0  0  0  0  0  0
   -1.2709    1.9082    0.4964 C   0  0  0  0  0  0  0  0  0  0  0  0
   -0.2598    1.9970    1.1805 O   0  0  0  0  0  0  0  0  0  0  0  0
   -1.5413    0.8420   -0.5743 C   0  0  1  0  0  0  0  0  0  0  0  0
   -1.5222    1.4442   -1.9795 C   0  0  0  0  0  0  0  0  0  0  0  0
   -0.6903   -0.3694   -0.4105 N   0  0  0  0  0  0  0  0  0  0  0  0
    0.6563   -0.5329   -0.7494 C   0  0  0  0  0  0  0  0  0  0  0  0
    1.2036   -1.6415   -0.7139 O   0  0  0  0  0  0  0  0  0  0  0  0
    1.4444    0.6808   -1.2269 C   0  0  0  0  0  0  0  0  0  0  0  0
    2.8899    0.6789   -0.7813 C   0  0  0  0  0  0  0  0  0  0  0  0
    3.2463    1.2290    0.4585 C   0  0  0  0  0  0  0  0  0  0  0  0
    4.5776    1.2255    0.8769 C   0  0  0  0  0  0  0  0  0  0  0  0
    5.5631    0.6672    0.0650 C   0  0  0  0  0  0  0  0  0  0  0  0
    5.2176    0.1071   -1.1637 C   0  0  0  0  0  0  0  0  0  0  0  0
    3.8869    0.1099   -1.5849 C   0  0  0  0  0  0  0  0  0  0  0  0
   -1.3563   -1.4906    0.1862 C   0  0  0  0  0  0  0  0  0  0  0  0
   -1.1382   -1.8003    1.5475 C   0  0  0  0  0  0  0  0  0  0  0  0
   -0.2166   -1.0061    2.4331 C   0  0  0  0  0  0  0  0  0  0  0  0
   -1.8610   -2.8546    2.1293 C   0  0  0  0  0  0  0  0  0  0  0  0
   -2.7637   -3.6032    1.3793 C   0  0  0  0  0  0  0  0  0  0  0  0
   -2.9558   -3.3133    0.0320 C   0  0  0  0  0  0  0  0  0  0  0  0
   -2.2500   -2.2688   -0.5848 C   0  0  0  0  0  0  0  0  0  0  0  0
   -2.4763   -2.0241   -2.0508 C   0  0  0  0  0  0  0  0  0  0  0  0
  1  2  1  0
  2  3  1  0
  3  4  2  0
  3  5  1  0
  5  6  1  6
  5  7  1  0
  7  8  1  0
  8  9  2  0
  8 10  1  0
 10 11  1  0
 11 12  2  0
 12 13  1  0
 13 14  2  0
 14 15  1  0
 15 16  2  0
  7 17  1  0
 17 18  2  0
 18 19  1  0
 18 20  1  0
 20 21  2  0
 21 22  1  0
 22 23  2  0
 23 24  1  0
 16 11  1  0
 23 17  1  0
M  END
