
     RDKit          3D

 25 27  0  0  0  0  0  0  0  0999 V2000
   -3.3792   -1.2209    1.6155 C   0  0  0  0  0  0  0  0  0  0  0  0
   -4.0208   -0.3282    0.5349 C   0  0  0  0  0  0  0  0  0  0  0  0
   -4.5660   -1.2288   -0.5855 C   0  0  0  0  0  0  0  0  0  0  0  0
   -5.2299    0.3929    1.1780 C   0  0  0  0  0  0  0  0  0  0  0  0
   -3.0159    0.7482    0.0034 C   0  0  1  0  0  0  0  0  0  0  0  0
   -2.6599    1.6002    1.1221 O   0  0  0  0  0  0  0  0  0  0  0  0
   -1.6972    0.2391   -0.6444 C   0  0  2  0  0  0  0  0  0  0  0  0
   -0.8293    1.3944   -0.8073 O   0  0  0  0  0  0  0  0  0  0  0  0
    0.4705    1.1143   -0.4891 C   0  0  0  0  0  0  0  0  0  0  0  0
    1.4102    1.1197   -1.5135 C   0  0  0  0  0  0  0  0  0  0  0  0
    2.7506    0.8545   -1.2226 C   0  0  0  0  0  0  0  0  0  0  0  0
    3.1705    0.6011    0.0950 C   0  0  0  0  0  0  0  0  0  0  0  0
    4.5840    0.3217    0.3990 C   0  0  0  0  0  0  0  0  0  0  0  0
    5.2834   -0.6919   -0.2776 C   0  0  0  0  0  0  0  0  0  0  0  0
    6.6245   -0.9591    0.0112 C   0  0  0  0  0  0  0  0  0  0  0  0
    7.2902   -0.2153    0.9819 C   0  0  0  0  0  0  0  0  0  0  0  0
    6.6167    0.7949    1.6634 C   0  0  0  0  0  0  0  0  0  0  0  0
    5.2752    1.0601    1.3743 C   0  0  0  0  0  0  0  0  0  0  0  0
    2.2028    0.6311    1.1149 C   0  0  0  0  0  0  0  0  0  0  0  0
    0.8605    0.8940    0.8290 C   0  0  0  0  0  0  0  0  0  0  0  0
   -1.8540   -0.3615   -1.9581 N   0  0  0  0  0  0  0  0  0  0  0  0
   -1.2355   -1.4852   -2.4192 C   0  0  0  0  0  0  0  0  0  0  0  0
   -1.5963   -1.7088   -3.6613 N   0  0  0  0  0  0  0  0  0  0  0  0
   -2.4322   -0.6637   -3.9319 C   0  0  0  0  0  0  0  0  0  0  0  0
   -2.6218    0.1905   -2.9230 N   0  0  0  0  0  0  0  0  0  0  0  0
  1  2  1  0
  2  3  1  0
  2  4  1  0
  2  5  1  0
  5  6  1  1
  5  7  1  0
  7  8  1  6
  8  9  1  0
  9 10  2  0
 10 11  1  0
 11 12  2  0
 12 13  1  0
 13 14  2  0
 14 15  1  0
 15 16  2  0
 16 17  1  0
 17 18  2  0
 12 19  1  0
 19 20  2  0
  7 21  1  0
 21 22  1  0
 22 23  2  0
 23 24  1  0
 24 25  2  0
 20  9  1  0
 25 21  1  0
 18 13  1  0
M  END
