
     RDKit          3D

 19 19  0  0  0  0  0  0  0  0999 V2000
    3.9636   -2.3628   -0.8297 C   0  0  0  0  0  0  0  0  0  0  0  0
    2.8896   -1.5715   -1.5500 C   0  0  0  0  0  0  0  0  0  0  0  0
    2.0353   -0.9790   -0.5641 O   0  0  0  0  0  0  0  0  0  0  0  0
    0.9928   -0.2639   -1.0832 C   0  0  0  0  0  0  0  0  0  0  0  0
    0.7981   -0.0878   -2.2804 O   0  0  0  0  0  0  0  0  0  0  0  0
    0.1392    0.3027    0.0507 C   0  0  2  0  0  0  0  0  0  0  0  0
   -1.6181    0.3989   -0.4492 S   0  0  0  0  0  0  0  0  0  0  0  0
   -2.2389   -1.5964   -0.2295 P   0  0  0  0  0  5  0  0  0  0  0  0
   -1.2728   -3.0339   -1.1208 S   0  0  0  0  0  0  0  0  0  0  0  0
   -3.8363   -1.6379   -0.5376 O   0  0  0  0  0  0  0  0  0  0  0  0
   -4.2744   -1.4866   -1.8749 C   0  0  0  0  0  0  0  0  0  0  0  0
   -2.2639   -1.8724    1.3754 O   0  0  0  0  0  0  0  0  0  0  0  0
   -3.2424   -1.2413    2.1780 C   0  0  0  0  0  0  0  0  0  0  0  0
    0.6441    1.6518    0.5292 C   0  0  0  0  0  0  0  0  0  0  0  0
    0.8241    2.7264   -0.3585 C   0  0  0  0  0  0  0  0  0  0  0  0
    1.2907    3.9589    0.1012 C   0  0  0  0  0  0  0  0  0  0  0  0
    1.5816    4.1360    1.4518 C   0  0  0  0  0  0  0  0  0  0  0  0
    1.4047    3.0819    2.3451 C   0  0  0  0  0  0  0  0  0  0  0  0
    0.9379    1.8477    1.8887 C   0  0  0  0  0  0  0  0  0  0  0  0
  1  2  1  0
  2  3  1  0
  3  4  1  0
  4  5  2  0
  4  6  1  0
  6  7  1  6
  7  8  1  0
  8  9  2  0
  8 10  1  0
 10 11  1  0
  8 12  1  0
 12 13  1  0
  6 14  1  0
 14 15  2  0
 15 16  1  0
 16 17  2  0
 17 18  1  0
 18 19  2  0
 19 14  1  0
M  END
