
     RDKit          3D

 20 21  0  0  0  0  0  0  0  0999 V2000
   -2.6540   -2.6524    1.1317 C   0  0  0  0  0  0  0  0  0  0  0  0
   -1.4660   -1.8798    0.5920 C   0  0  0  0  0  0  0  0  0  0  0  0
   -1.5008   -1.9412   -0.8169 O   0  0  0  0  0  0  0  0  0  0  0  0
   -0.4953   -1.1112   -1.7868 P   0  0  2  0  0  5  0  0  0  0  0  0
   -0.5103   -1.9190   -3.5679 S   0  0  0  0  0  0  0  0  0  0  0  0
    0.9533   -1.3180   -1.1019 O   0  0  0  0  0  0  0  0  0  0  0  0
    1.5749   -0.7801   -0.0169 C   0  0  0  0  0  0  0  0  0  0  0  0
    1.0938    0.2387    0.7973 C   0  0  0  0  0  0  0  0  0  0  0  0
    1.8569    0.6960    1.8802 C   0  0  0  0  0  0  0  0  0  0  0  0
    3.1079    0.1357    2.1543 C   0  0  0  0  0  0  0  0  0  0  0  0
    3.8837    0.6078    3.2635 C   0  0  0  0  0  0  0  0  0  0  0  0
    4.5073    0.9918    4.1636 N   0  0  0  0  0  0  0  0  0  0  0  0
    3.5937   -0.8861    1.3380 C   0  0  0  0  0  0  0  0  0  0  0  0
    2.8285   -1.3370    0.2591 C   0  0  0  0  0  0  0  0  0  0  0  0
   -0.9572    0.6088   -1.6942 C   0  0  0  0  0  0  0  0  0  0  0  0
   -2.2405    0.9989   -1.2802 C   0  0  0  0  0  0  0  0  0  0  0  0
   -2.5931    2.3484   -1.2274 C   0  0  0  0  0  0  0  0  0  0  0  0
   -1.6735    3.3249   -1.6040 C   0  0  0  0  0  0  0  0  0  0  0  0
   -0.4054    2.9545   -2.0452 C   0  0  0  0  0  0  0  0  0  0  0  0
   -0.0524    1.6056   -2.0988 C   0  0  0  0  0  0  0  0  0  0  0  0
  1  2  1  0
  2  3  1  0
  4  3  1  1
  4  5  2  0
  4  6  1  0
  6  7  1  0
  7  8  2  0
  8  9  1  0
  9 10  2  0
 10 11  1  0
 11 12  3  0
 10 13  1  0
 13 14  2  0
  4 15  1  0
 15 16  2  0
 16 17  1  0
 17 18  2  0
 18 19  1  0
 19 20  2  0
 14  7  1  0
 20 15  1  0
M  END
