
     RDKit          3D

 26 27  0  0  0  0  0  0  0  0999 V2000
    4.0783    3.3592    0.5646 N   0  0  0  0  0  0  0  0  0  0  0  0
    3.2712    2.5287    0.4802 C   0  0  0  0  0  0  0  0  0  0  0  0
    2.3405    1.4423    0.3986 C   0  0  0  0  0  0  0  0  0  0  0  0
    1.0457    1.6951    0.1829 N   0  0  0  0  0  0  0  0  0  0  0  0
    0.4477    0.4712    0.1985 N   0  0  0  0  0  0  0  0  0  0  0  0
   -0.9491    0.3716    0.0084 C   0  0  0  0  0  0  0  0  0  0  0  0
   -1.5421    0.9527   -1.1251 C   0  0  0  0  0  0  0  0  0  0  0  0
   -0.6402    1.6828   -2.4109 Cl  0  0  0  0  0  0  0  0  0  0  0  0
   -2.9288    0.8753   -1.3111 C   0  0  0  0  0  0  0  0  0  0  0  0
   -3.7464    0.2316   -0.3733 C   0  0  0  0  0  0  0  0  0  0  0  0
   -5.2371    0.1297   -0.5894 C   0  0  0  0  0  0  0  0  0  0  0  0
   -5.5809   -1.0141   -1.2393 F   0  0  0  0  0  0  0  0  0  0  0  0
   -5.9402    0.1289    0.5756 F   0  0  0  0  0  0  0  0  0  0  0  0
   -5.7396    1.1535   -1.3308 F   0  0  0  0  0  0  0  0  0  0  0  0
   -3.1473   -0.3468    0.7540 C   0  0  0  0  0  0  0  0  0  0  0  0
   -1.7618   -0.2728    0.9529 C   0  0  0  0  0  0  0  0  0  0  0  0
   -1.1741   -0.9087    2.4511 Cl  0  0  0  0  0  0  0  0  0  0  0  0
    1.3754   -0.5544    0.4034 C   0  0  0  0  0  0  0  0  0  0  0  0
    1.0857   -1.8833    0.4008 N   0  0  0  0  0  0  0  0  0  0  0  0
    2.5948    0.0713    0.5246 C   0  0  0  0  0  0  0  0  0  0  0  0
    4.1811   -0.7048    0.7920 S   0  0  0  0  0  4  0  0  0  0  0  0
    3.8965   -2.0973    1.2904 O   0  0  0  0  0  0  0  0  0  0  0  0
    4.6980   -0.7597   -0.9487 C   0  0  0  0  0  0  0  0  0  0  0  0
    4.7696    0.4904   -1.4763 F   0  0  0  0  0  0  0  0  0  0  0  0
    3.8489   -1.4700   -1.7315 F   0  0  0  0  0  0  0  0  0  0  0  0
    5.9296   -1.3122   -1.0877 F   0  0  0  0  0  0  0  0  0  0  0  0
  1  2  3  0
  2  3  1  0
  3  4  2  0
  4  5  1  0
  5  6  1  0
  6  7  2  0
  7  8  1  0
  7  9  1  0
  9 10  2  0
 10 11  1  0
 11 12  1  0
 11 13  1  0
 11 14  1  0
 10 15  1  0
 15 16  2  0
 16 17  1  0
  5 18  1  0
 18 19  1  0
 18 20  2  0
 20 21  1  0
 21 22  2  0
 21 23  1  6
 23 24  1  0
 23 25  1  0
 23 26  1  0
 20  3  1  0
 16  6  1  0
M  END
