
     RDKit          3D

 18 18  0  0  0  0  0  0  0  0999 V2000
   -3.8252   -1.3934    1.3326 C   0  0  0  0  0  0  0  0  0  0  0  0
   -2.5177   -1.1817    2.0819 C   0  0  0  0  0  0  0  0  0  0  0  0
   -1.5725   -0.2823    1.2927 C   0  0  0  0  0  0  0  0  0  0  0  0
   -0.0139   -0.0625    2.1925 S   0  0  0  0  0  0  0  0  0  0  0  0
    1.1119    1.1962    0.9204 P   0  0  2  0  0  5  0  0  0  0  0  0
    2.8707    1.8017    1.5218 S   0  0  0  0  0  0  0  0  0  0  0  0
    0.1088    2.4451    0.6152 O   0  0  0  0  0  0  0  0  0  0  0  0
    0.4846    3.4249   -0.3402 C   0  0  0  0  0  0  0  0  0  0  0  0
   -0.7654    4.1485   -0.7992 C   0  0  0  0  0  0  0  0  0  0  0  0
    1.1187    0.5127   -0.5484 O   0  0  0  0  0  0  0  0  0  0  0  0
    1.6605   -0.6876   -0.9167 C   0  0  0  0  0  0  0  0  0  0  0  0
    2.4065   -1.4992   -0.0622 C   0  0  0  0  0  0  0  0  0  0  0  0
    2.9183   -2.7165   -0.5238 C   0  0  0  0  0  0  0  0  0  0  0  0
    2.6867   -3.1213   -1.8368 C   0  0  0  0  0  0  0  0  0  0  0  0
    3.3207   -4.6202   -2.3923 Cl  0  0  0  0  0  0  0  0  0  0  0  0
    1.9462   -2.3211   -2.6999 C   0  0  0  0  0  0  0  0  0  0  0  0
    1.4359   -1.1074   -2.2377 C   0  0  0  0  0  0  0  0  0  0  0  0
    0.5108   -0.1406   -3.3334 Cl  0  0  0  0  0  0  0  0  0  0  0  0
  1  2  1  0
  2  3  1  0
  3  4  1  0
  4  5  1  0
  5  6  2  0
  5  7  1  6
  7  8  1  0
  8  9  1  0
  5 10  1  0
 10 11  1  0
 11 12  2  0
 12 13  1  0
 13 14  2  0
 14 15  1  0
 14 16  1  0
 16 17  2  0
 17 18  1  0
 17 11  1  0
M  END
