
     RDKit          3D

 19 20  0  0  0  0  0  0  0  0999 V2000
    0.9777    1.3088    1.9045 O   0  0  0  0  0  0  0  0  0  0  0  0
    1.3764    0.7043    0.9197 C   0  0  0  0  0  0  0  0  0  0  0  0
    2.8440    0.4960    0.5786 C   0  0  2  0  0  0  0  0  0  0  0  0
    3.7350    2.0175    0.7711 Cl  0  0  0  0  0  0  0  0  0  0  0  0
    2.8217    0.0145   -0.8710 C   0  0  1  0  0  0  0  0  0  0  0  0
    3.9419   -0.9502   -1.2423 C   0  0  0  0  0  0  0  0  0  0  0  0
    5.5335   -0.1688   -1.2752 Cl  0  0  0  0  0  0  0  0  0  0  0  0
    1.4700   -0.6807   -0.9693 C   0  0  0  0  0  0  0  0  0  0  0  0
    0.6136    0.0207   -0.0454 N   0  0  0  0  0  0  0  0  0  0  0  0
   -0.8038   -0.1119   -0.0622 C   0  0  0  0  0  0  0  0  0  0  0  0
   -1.4272   -1.0170   -0.9360 C   0  0  0  0  0  0  0  0  0  0  0  0
   -2.8180   -1.1617   -0.9651 C   0  0  0  0  0  0  0  0  0  0  0  0
   -3.6179   -0.3981   -0.1217 C   0  0  0  0  0  0  0  0  0  0  0  0
   -3.0323    0.5226    0.7535 C   0  0  0  0  0  0  0  0  0  0  0  0
   -3.8783    1.3556    1.6856 C   0  0  0  0  0  0  0  0  0  0  0  0
   -3.8263    0.9120    2.9714 F   0  0  0  0  0  0  0  0  0  0  0  0
   -3.5013    2.6633    1.7196 F   0  0  0  0  0  0  0  0  0  0  0  0
   -5.1998    1.3622    1.3490 F   0  0  0  0  0  0  0  0  0  0  0  0
   -1.6291    0.6512    0.7754 C   0  0  0  0  0  0  0  0  0  0  0  0
  1  2  2  0
  2  3  1  0
  3  4  1  6
  3  5  1  0
  5  6  1  1
  6  7  1  0
  5  8  1  0
  8  9  1  0
  9 10  1  0
 10 11  2  0
 11 12  1  0
 12 13  2  0
 13 14  1  0
 14 15  1  0
 15 16  1  0
 15 17  1  0
 15 18  1  0
 14 19  2  0
  9  2  1  0
 19 10  1  0
M  END
