
     RDKit          3D

 24 26  0  0  0  0  0  0  0  0999 V2000
   -4.3443   -1.7190   -0.7813 C   0  0  0  0  0  0  0  0  0  0  0  0
   -4.7604   -0.3049   -0.4856 C   0  0  0  0  0  0  0  0  0  0  0  0
   -6.2130   -0.0062   -0.7332 C   0  0  0  0  0  0  0  0  0  0  0  0
   -3.9162    0.6434   -0.0342 C   0  0  0  0  0  0  0  0  0  0  0  0
   -2.4791    0.4930    0.2371 C   0  0  1  0  0  0  0  0  0  0  0  0
   -1.8270    1.3976    1.2635 C   0  0  2  0  0  0  0  0  0  0  0  0
   -0.4824    1.9774    1.0399 C   0  0  0  0  0  0  0  0  0  0  0  0
    0.3040    2.1465    1.9585 O   0  0  0  0  0  0  0  0  0  0  0  0
   -0.2718    2.2840   -0.2621 O   0  0  0  0  0  0  0  0  0  0  0  0
    1.0332    2.7837   -0.5606 C   0  0  0  0  0  0  0  0  0  0  0  0
    2.0004    1.7199   -0.5680 N   0  0  0  0  0  0  0  0  0  0  0  0
    3.2501    1.8459   -0.0501 C   0  0  0  0  0  0  0  0  0  0  0  0
    3.7549    2.7997    0.5123 O   0  0  0  0  0  0  0  0  0  0  0  0
    3.9561    0.6022   -0.3631 C   0  0  0  0  0  0  0  0  0  0  0  0
    3.1602   -0.1361   -1.1392 C   0  0  0  0  0  0  0  0  0  0  0  0
    3.5029   -1.4688   -1.6881 C   0  0  0  0  0  0  0  0  0  0  0  0
    4.7590   -2.0324   -0.9984 C   0  0  0  0  0  0  0  0  0  0  0  0
    5.8412   -0.9604   -0.7848 C   0  0  0  0  0  0  0  0  0  0  0  0
    5.3311    0.2316    0.0450 C   0  0  0  0  0  0  0  0  0  0  0  0
    1.9140    0.6057   -1.3398 C   0  0  0  0  0  0  0  0  0  0  0  0
    1.0223    0.2562   -2.0901 O   0  0  0  0  0  0  0  0  0  0  0  0
   -1.9947   -0.0881    1.5552 C   0  0  0  0  0  0  0  0  0  0  0  0
   -2.9756   -0.4683    2.6379 C   0  0  0  0  0  0  0  0  0  0  0  0
   -0.7925   -1.0010    1.4950 C   0  0  0  0  0  0  0  0  0  0  0  0
  1  2  1  0
  2  3  1  0
  2  4  2  3
  5  4  1  1
  5  6  1  0
  6  7  1  6
  7  8  2  0
  7  9  1  0
  9 10  1  0
 10 11  1  0
 11 12  1  0
 12 13  2  0
 12 14  1  0
 14 15  2  0
 15 16  1  0
 16 17  1  0
 17 18  1  0
 18 19  1  0
 15 20  1  0
 20 21  2  0
  6 22  1  0
 22 23  1  0
 22 24  1  0
 22  5  1  0
 20 11  1  0
 19 14  1  0
M  END
