
     RDKit          3D

 19 20  0  0  0  0  0  0  0  0999 V2000
    1.7073   -0.8914   -2.4376 O   0  0  0  0  0  0  0  0  0  0  0  0
    1.7721   -0.5553   -1.2640 C   0  0  0  0  0  0  0  0  0  0  0  0
    3.0733   -0.3039   -0.5173 C   0  0  2  0  0  0  0  0  0  0  0  0
    4.2305   -1.6047   -0.8572 Cl  0  0  0  0  0  0  0  0  0  0  0  0
    2.6554   -0.2662    0.9514 C   0  0  1  0  0  0  0  0  0  0  0  0
    3.4886    0.6589    1.8309 C   0  0  0  0  0  0  0  0  0  0  0  0
    5.1439    0.0684    2.0678 Cl  0  0  0  0  0  0  0  0  0  0  0  0
    1.2172    0.2297    0.8747 C   0  0  0  0  0  0  0  0  0  0  0  0
    0.7132   -0.2577   -0.3854 N   0  0  0  0  0  0  0  0  0  0  0  0
   -0.6755   -0.2840   -0.6989 C   0  0  0  0  0  0  0  0  0  0  0  0
   -1.1560   -0.8513   -1.8851 C   0  0  0  0  0  0  0  0  0  0  0  0
   -2.5232   -0.8729   -2.1818 C   0  0  0  0  0  0  0  0  0  0  0  0
   -3.4433   -0.3285   -1.2924 C   0  0  0  0  0  0  0  0  0  0  0  0
   -3.0024    0.2368   -0.0922 C   0  0  0  0  0  0  0  0  0  0  0  0
   -3.9822    0.8540    0.8743 C   0  0  0  0  0  0  0  0  0  0  0  0
   -5.2352    0.3292    0.7855 F   0  0  0  0  0  0  0  0  0  0  0  0
   -4.1199    2.1947    0.6836 F   0  0  0  0  0  0  0  0  0  0  0  0
   -3.6059    0.7007    2.1756 F   0  0  0  0  0  0  0  0  0  0  0  0
   -1.6210    0.2583    0.1882 C   0  0  0  0  0  0  0  0  0  0  0  0
  1  2  2  0
  2  3  1  0
  3  4  1  1
  3  5  1  0
  5  6  1  1
  6  7  1  0
  5  8  1  0
  8  9  1  0
  9 10  1  0
 10 11  2  0
 11 12  1  0
 12 13  2  0
 13 14  1  0
 14 15  1  0
 15 16  1  0
 15 17  1  0
 15 18  1  0
 14 19  2  0
  9  2  1  0
 19 10  1  0
M  END
