
     RDKit          3D

 26 28  0  0  0  0  0  0  0  0999 V2000
   -5.7415    1.7291   -0.4082 C   0  0  0  0  0  0  0  0  0  0  0  0
   -4.3785    1.1910   -0.0369 C   0  0  0  0  0  0  0  0  0  0  0  0
   -4.4510   -0.0521    0.8211 C   0  0  0  0  0  0  0  0  0  0  0  0
   -3.2629    1.3664   -1.0560 C   0  0  2  0  0  0  0  0  0  0  0  0
   -2.2960    0.2797   -1.2881 C   0  0  0  0  0  0  0  0  0  0  0  0
   -2.4687   -0.8147   -2.0494 C   0  0  0  0  0  0  0  0  0  0  0  0
   -3.9425   -1.1202   -2.8966 Cl  0  0  0  0  0  0  0  0  0  0  0  0
   -1.1926   -1.9699   -2.2231 Cl  0  0  0  0  0  0  0  0  0  0  0  0
   -3.2689    2.2080    0.2061 C   0  0  2  0  0  0  0  0  0  0  0  0
   -2.2664    2.0526    1.2859 C   0  0  0  0  0  0  0  0  0  0  0  0
   -2.5689    1.7120    2.4202 O   0  0  0  0  0  0  0  0  0  0  0  0
   -1.0254    2.3849    0.8463 O   0  0  0  0  0  0  0  0  0  0  0  0
    0.0433    2.1324    1.7649 C   0  0  0  0  0  0  0  0  0  0  0  0
    0.6894    0.8284    1.3737 C   0  0  0  0  0  0  0  0  0  0  0  0
    0.3389   -0.3645    2.0242 C   0  0  0  0  0  0  0  0  0  0  0  0
    0.8769   -1.5845    1.6044 C   0  0  0  0  0  0  0  0  0  0  0  0
    1.7685   -1.6254    0.5295 C   0  0  0  0  0  0  0  0  0  0  0  0
    2.1332   -0.4401   -0.1131 C   0  0  0  0  0  0  0  0  0  0  0  0
    2.9591   -0.4170   -1.2145 O   0  0  0  0  0  0  0  0  0  0  0  0
    4.1684   -1.0662   -1.1307 C   0  0  0  0  0  0  0  0  0  0  0  0
    4.6220   -1.6902   -2.2959 C   0  0  0  0  0  0  0  0  0  0  0  0
    5.8665   -2.3192   -2.3130 C   0  0  0  0  0  0  0  0  0  0  0  0
    6.6637   -2.3162   -1.1695 C   0  0  0  0  0  0  0  0  0  0  0  0
    6.2173   -1.6842   -0.0082 C   0  0  0  0  0  0  0  0  0  0  0  0
    4.9738   -1.0488    0.0109 C   0  0  0  0  0  0  0  0  0  0  0  0
    1.5842    0.7783    0.2927 C   0  0  0  0  0  0  0  0  0  0  0  0
  1  2  1  0
  2  3  1  0
  2  4  1  0
  4  5  1  1
  5  6  2  3
  6  7  1  0
  6  8  1  0
  4  9  1  0
  9 10  1  1
 10 11  2  0
 10 12  1  0
 12 13  1  0
 13 14  1  0
 14 15  2  0
 15 16  1  0
 16 17  2  0
 17 18  1  0
 18 19  1  0
 19 20  1  0
 20 21  2  0
 21 22  1  0
 22 23  2  0
 23 24  1  0
 24 25  2  0
 18 26  2  0
  9  2  1  0
 26 14  1  0
 25 20  1  0
M  END
