
     RDKit          3D

 18 19  0  0  0  0  0  0  0  0999 V2000
   -3.5046    1.4587    1.2978 C   0  0  0  0  0  0  0  0  0  0  0  0
   -3.0235    1.0015    0.1322 C   0  0  0  0  0  0  0  0  0  0  0  0
   -2.2014   -0.2494   -0.0751 C   0  0  2  0  0  0  0  0  0  0  0  0
   -2.8986   -1.2459   -0.9936 C   0  0  0  0  0  0  0  0  0  0  0  0
   -1.9085   -0.8896    1.1589 O   0  0  0  0  0  0  0  0  0  0  0  0
   -0.5599   -0.8665    1.3673 C   0  0  0  0  0  0  0  0  0  0  0  0
   -0.0945   -1.3315    2.3969 O   0  0  0  0  0  0  0  0  0  0  0  0
    0.0951   -0.2762    0.3227 N   0  0  0  0  0  0  0  0  0  0  0  0
    1.5132   -0.0986    0.2155 C   0  0  0  0  0  0  0  0  0  0  0  0
    2.0806    0.7036   -0.7909 C   0  0  0  0  0  0  0  0  0  0  0  0
    3.4666    0.8769   -0.8935 C   0  0  0  0  0  0  0  0  0  0  0  0
    4.1101    1.8758   -2.1400 Cl  0  0  0  0  0  0  0  0  0  0  0  0
    4.3296    0.2586   -0.0016 C   0  0  0  0  0  0  0  0  0  0  0  0
    3.7915   -0.5366    0.9988 C   0  0  0  0  0  0  0  0  0  0  0  0
    4.8437   -1.3200    2.1145 Cl  0  0  0  0  0  0  0  0  0  0  0  0
    2.4065   -0.7145    1.1103 C   0  0  0  0  0  0  0  0  0  0  0  0
   -0.8301    0.1109   -0.6125 C   0  0  0  0  0  0  0  0  0  0  0  0
   -0.6537    0.6300   -1.7082 O   0  0  0  0  0  0  0  0  0  0  0  0
  1  2  2  0
  2  3  1  0
  3  4  1  6
  3  5  1  0
  5  6  1  0
  6  7  2  0
  6  8  1  0
  8  9  1  0
  9 10  2  0
 10 11  1  0
 11 12  1  0
 11 13  2  0
 13 14  1  0
 14 15  1  0
 14 16  2  0
  8 17  1  0
 17 18  2  0
 17  3  1  0
 16  9  1  0
M  END
