
     RDKit          3D

 26 27  0  0  0  0  0  0  0  0999 V2000
   -4.3676   -2.8591   -0.7976 N   0  0  0  0  0  0  0  0  0  0  0  0
   -3.5317   -2.1235   -0.4654 C   0  0  0  0  0  0  0  0  0  0  0  0
   -2.4864   -1.2173   -0.0803 C   0  0  0  0  0  0  0  0  0  0  0  0
   -1.2373   -1.4668   -0.4917 N   0  0  0  0  0  0  0  0  0  0  0  0
   -0.4921   -0.4546    0.0187 N   0  0  0  0  0  0  0  0  0  0  0  0
    0.9039   -0.4386   -0.2030 C   0  0  0  0  0  0  0  0  0  0  0  0
    1.4024   -0.5051   -1.5147 C   0  0  0  0  0  0  0  0  0  0  0  0
    0.3980   -0.4471   -2.9240 Cl  0  0  0  0  0  0  0  0  0  0  0  0
    2.7851   -0.5204   -1.7415 C   0  0  0  0  0  0  0  0  0  0  0  0
    3.6902   -0.4812   -0.6731 C   0  0  0  0  0  0  0  0  0  0  0  0
    5.1795   -0.4743   -0.9221 C   0  0  0  0  0  0  0  0  0  0  0  0
    5.8810   -1.1020    0.0603 F   0  0  0  0  0  0  0  0  0  0  0  0
    5.5299   -1.0861   -2.0850 F   0  0  0  0  0  0  0  0  0  0  0  0
    5.6766    0.7895   -0.9926 F   0  0  0  0  0  0  0  0  0  0  0  0
    3.1850   -0.4121    0.6326 C   0  0  0  0  0  0  0  0  0  0  0  0
    1.8042   -0.3994    0.8723 C   0  0  0  0  0  0  0  0  0  0  0  0
    1.3194   -0.4396    2.5328 Cl  0  0  0  0  0  0  0  0  0  0  0  0
   -1.2752    0.4655    0.7273 C   0  0  0  0  0  0  0  0  0  0  0  0
   -0.8008    1.6175    1.2725 N   0  0  0  0  0  0  0  0  0  0  0  0
   -2.5582   -0.0327    0.6676 C   0  0  0  0  0  0  0  0  0  0  0  0
   -4.0060    0.7235    1.3792 S   0  0  0  0  0  4  0  0  0  0  0  0
   -5.0420   -0.3582    1.4860 O   0  0  0  0  0  0  0  0  0  0  0  0
   -4.3858    1.8307   -0.0078 C   0  0  0  0  0  0  0  0  0  0  0  0
   -3.4679    2.8272   -0.1123 F   0  0  0  0  0  0  0  0  0  0  0  0
   -5.5913    2.4350    0.1473 F   0  0  0  0  0  0  0  0  0  0  0  0
   -4.4095    1.1852   -1.2009 F   0  0  0  0  0  0  0  0  0  0  0  0
  1  2  3  0
  2  3  1  0
  3  4  2  0
  4  5  1  0
  5  6  1  0
  6  7  2  0
  7  8  1  0
  7  9  1  0
  9 10  2  0
 10 11  1  0
 11 12  1  0
 11 13  1  0
 11 14  1  0
 10 15  1  0
 15 16  2  0
 16 17  1  0
  5 18  1  0
 18 19  1  0
 18 20  2  0
 20 21  1  0
 21 22  2  0
 21 23  1  6
 23 24  1  0
 23 25  1  0
 23 26  1  0
 20  3  1  0
 16  6  1  0
M  END
