
     RDKit          3D

 24 26  0  0  0  0  0  0  0  0999 V2000
   -1.2502    2.8393   -2.3733 N   0  0  0  0  0  0  0  0  0  0  0  0
   -1.1748    1.9098   -1.6820 C   0  0  0  0  0  0  0  0  0  0  0  0
   -1.0814    0.6850   -0.8347 C   0  0  2  0  0  0  0  0  0  0  0  0
    0.3717    0.6446   -0.2557 C   0  0  0  0  0  0  0  0  0  0  0  0
    1.5068    0.6556   -1.2958 C   0  0  0  0  0  0  0  0  0  0  0  0
    2.8554    0.5407   -0.6256 C   0  0  0  0  0  0  0  0  0  0  0  0
    3.3876   -0.7217   -0.3260 C   0  0  0  0  0  0  0  0  0  0  0  0
    4.6245   -0.8336    0.3118 C   0  0  0  0  0  0  0  0  0  0  0  0
    5.3317    0.3161    0.6559 C   0  0  0  0  0  0  0  0  0  0  0  0
    6.8554    0.1789    1.4436 Cl  0  0  0  0  0  0  0  0  0  0  0  0
    4.8121    1.5767    0.3689 C   0  0  0  0  0  0  0  0  0  0  0  0
    3.5747    1.6894   -0.2689 C   0  0  0  0  0  0  0  0  0  0  0  0
   -1.3856   -0.5240   -1.7607 C   0  0  0  0  0  0  0  0  0  0  0  0
   -1.2457   -1.8187   -1.1306 N   0  0  0  0  0  0  0  0  0  0  0  0
   -2.2055   -2.5670   -0.5245 C   0  0  0  0  0  0  0  0  0  0  0  0
   -1.6831   -3.7020   -0.1208 N   0  0  0  0  0  0  0  0  0  0  0  0
   -0.3827   -3.6037   -0.5228 C   0  0  0  0  0  0  0  0  0  0  0  0
   -0.0663   -2.4663   -1.1487 N   0  0  0  0  0  0  0  0  0  0  0  0
   -2.1698    0.7457    0.2703 C   0  0  0  0  0  0  0  0  0  0  0  0
   -1.9163    0.3729    1.6029 C   0  0  0  0  0  0  0  0  0  0  0  0
   -2.9293    0.3967    2.5668 C   0  0  0  0  0  0  0  0  0  0  0  0
   -4.2179    0.7900    2.2232 C   0  0  0  0  0  0  0  0  0  0  0  0
   -4.4983    1.1591    0.9132 C   0  0  0  0  0  0  0  0  0  0  0  0
   -3.4893    1.1340   -0.0528 C   0  0  0  0  0  0  0  0  0  0  0  0
  1  2  3  0
  3  2  1  6
  3  4  1  0
  4  5  1  0
  5  6  1  0
  6  7  2  0
  7  8  1  0
  8  9  2  0
  9 10  1  0
  9 11  1  0
 11 12  2  0
  3 13  1  0
 13 14  1  0
 14 15  1  0
 15 16  2  0
 16 17  1  0
 17 18  2  0
  3 19  1  0
 19 20  2  0
 20 21  1  0
 21 22  2  0
 22 23  1  0
 23 24  2  0
 12  6  1  0
 18 14  1  0
 24 19  1  0
M  END
