
     RDKit          3D

 27 30  0  0  0  0  0  0  0  0999 V2000
   -3.3916   -3.2736    1.0036 C   0  0  0  0  0  0  0  0  0  0  0  0
   -2.5500   -2.4503    0.0527 C   0  0  1  0  0  0  0  0  0  0  0  0
   -3.1054   -2.3666   -1.3415 C   0  0  0  0  0  0  0  0  0  0  0  0
   -2.4691   -1.2041   -1.8684 O   0  0  0  0  0  0  0  0  0  0  0  0
   -2.2650   -0.3157   -0.7414 C   0  0  2  0  0  0  0  0  0  0  0  0
   -3.3000    0.8245   -0.8277 C   0  0  0  0  0  0  0  0  0  0  0  0
   -3.1342    1.8601    0.1652 N   0  0  0  0  0  0  0  0  0  0  0  0
   -2.4240    3.0162    0.0513 C   0  0  0  0  0  0  0  0  0  0  0  0
   -2.5678    3.7301    1.1437 N   0  0  0  0  0  0  0  0  0  0  0  0
   -3.4146    2.9689    1.8969 C   0  0  0  0  0  0  0  0  0  0  0  0
   -3.8066    1.8246    1.3314 N   0  0  0  0  0  0  0  0  0  0  0  0
   -0.8105    0.1655   -0.7630 C   0  0  0  0  0  0  0  0  0  0  0  0
   -0.0516    0.1225    0.4287 C   0  0  0  0  0  0  0  0  0  0  0  0
    1.2758    0.5565    0.4710 C   0  0  0  0  0  0  0  0  0  0  0  0
    1.8817    1.0367   -0.6853 C   0  0  0  0  0  0  0  0  0  0  0  0
    3.1715    1.5145   -0.7113 O   0  0  0  0  0  0  0  0  0  0  0  0
    4.1379    0.7529   -0.0955 C   0  0  0  0  0  0  0  0  0  0  0  0
    5.0197    1.4150    0.7601 C   0  0  0  0  0  0  0  0  0  0  0  0
    6.0435    0.7039    1.3890 C   0  0  0  0  0  0  0  0  0  0  0  0
    6.1880   -0.6617    1.1449 C   0  0  0  0  0  0  0  0  0  0  0  0
    7.4497   -1.5384    1.9192 Cl  0  0  0  0  0  0  0  0  0  0  0  0
    5.3222   -1.3213    0.2722 C   0  0  0  0  0  0  0  0  0  0  0  0
    4.2976   -0.6111   -0.3572 C   0  0  0  0  0  0  0  0  0  0  0  0
    1.1500    1.1276   -1.8653 C   0  0  0  0  0  0  0  0  0  0  0  0
   -0.1822    0.6958   -1.9079 C   0  0  0  0  0  0  0  0  0  0  0  0
   -0.9944    0.8994   -3.4214 Cl  0  0  0  0  0  0  0  0  0  0  0  0
   -2.5264   -1.0825    0.4604 O   0  0  0  0  0  0  0  0  0  0  0  0
  2  1  1  1
  2  3  1  0
  3  4  1  0
  4  5  1  0
  5  6  1  6
  6  7  1  0
  7  8  1  0
  8  9  2  0
  9 10  1  0
 10 11  2  0
  5 12  1  0
 12 13  2  0
 13 14  1  0
 14 15  2  0
 15 16  1  0
 16 17  1  0
 17 18  2  0
 18 19  1  0
 19 20  2  0
 20 21  1  0
 20 22  1  0
 22 23  2  0
 15 24  1  0
 24 25  2  0
 25 26  1  0
  5 27  1  0
 27  2  1  0
 11  7  1  0
 25 12  1  0
 23 17  1  0
M  END
