
     RDKit          3D

 24 26  0  0  0  0  0  0  0  0999 V2000
   -3.0827   -0.6653    1.6745 N   0  0  0  0  0  0  0  0  0  0  0  0
   -2.3303   -0.1599    0.9487 C   0  0  0  0  0  0  0  0  0  0  0  0
   -1.3586    0.5243    0.0531 C   0  0  1  0  0  0  0  0  0  0  0  0
    0.0939    0.1175    0.4786 C   0  0  0  0  0  0  0  0  0  0  0  0
    0.3081   -1.3251    0.9760 C   0  0  0  0  0  0  0  0  0  0  0  0
    1.7792   -1.6648    1.0412 C   0  0  0  0  0  0  0  0  0  0  0  0
    2.3650   -2.4681    0.0523 C   0  0  0  0  0  0  0  0  0  0  0  0
    3.7285   -2.7665    0.1003 C   0  0  0  0  0  0  0  0  0  0  0  0
    4.5117   -2.2630    1.1363 C   0  0  0  0  0  0  0  0  0  0  0  0
    6.1921   -2.6279    1.1932 Cl  0  0  0  0  0  0  0  0  0  0  0  0
    3.9428   -1.4654    2.1266 C   0  0  0  0  0  0  0  0  0  0  0  0
    2.5794   -1.1667    2.0795 C   0  0  0  0  0  0  0  0  0  0  0  0
   -1.6658    0.1896   -1.4325 C   0  0  0  0  0  0  0  0  0  0  0  0
   -1.3860   -1.1583   -1.8637 N   0  0  0  0  0  0  0  0  0  0  0  0
   -0.3674   -1.5868   -2.6563 C   0  0  0  0  0  0  0  0  0  0  0  0
   -0.4659   -2.8844   -2.8282 N   0  0  0  0  0  0  0  0  0  0  0  0
   -1.6058   -3.2001   -2.1437 C   0  0  0  0  0  0  0  0  0  0  0  0
   -2.2030   -2.1701   -1.5382 N   0  0  0  0  0  0  0  0  0  0  0  0
   -1.5323    2.0739    0.1425 C   0  0  0  0  0  0  0  0  0  0  0  0
   -0.4625    2.9518   -0.1271 C   0  0  0  0  0  0  0  0  0  0  0  0
   -0.6344    4.3386   -0.0869 C   0  0  0  0  0  0  0  0  0  0  0  0
   -1.8799    4.8813    0.2087 C   0  0  0  0  0  0  0  0  0  0  0  0
   -2.9572    4.0385    0.4577 C   0  0  0  0  0  0  0  0  0  0  0  0
   -2.7894    2.6515    0.4182 C   0  0  0  0  0  0  0  0  0  0  0  0
  1  2  3  0
  3  2  1  1
  3  4  1  0
  4  5  1  0
  5  6  1  0
  6  7  2  0
  7  8  1  0
  8  9  2  0
  9 10  1  0
  9 11  1  0
 11 12  2  0
  3 13  1  0
 13 14  1  0
 14 15  1  0
 15 16  2  0
 16 17  1  0
 17 18  2  0
  3 19  1  0
 19 20  2  0
 20 21  1  0
 21 22  2  0
 22 23  1  0
 23 24  2  0
 12  6  1  0
 18 14  1  0
 24 19  1  0
M  END
