
     RDKit          3D

 25 27  0  0  0  0  0  0  0  0999 V2000
   -5.0162    0.0127    0.2850 C   0  0  0  0  0  0  0  0  0  0  0  0
   -4.0664   -1.0271   -0.3374 C   0  0  0  0  0  0  0  0  0  0  0  0
   -4.8939   -1.8353   -1.3668 C   0  0  0  0  0  0  0  0  0  0  0  0
   -3.6040   -2.0049    0.7576 C   0  0  0  0  0  0  0  0  0  0  0  0
   -2.8458   -0.3780   -1.0722 C   0  0  1  0  0  0  0  0  0  0  0  0
   -3.3045    0.6002   -2.0242 O   0  0  0  0  0  0  0  0  0  0  0  0
   -1.6941    0.2124   -0.2010 C   0  0  1  0  0  0  0  0  0  0  0  0
   -0.6178    0.5628   -1.1012 O   0  0  0  0  0  0  0  0  0  0  0  0
    0.6711    0.4041   -0.6789 C   0  0  0  0  0  0  0  0  0  0  0  0
    1.6178    0.3763   -1.7037 C   0  0  0  0  0  0  0  0  0  0  0  0
    2.9782    0.2257   -1.4166 C   0  0  0  0  0  0  0  0  0  0  0  0
    3.4264    0.1085   -0.0933 C   0  0  0  0  0  0  0  0  0  0  0  0
    4.8572   -0.0485    0.2153 C   0  0  0  0  0  0  0  0  0  0  0  0
    5.8094    0.8559   -0.2841 C   0  0  0  0  0  0  0  0  0  0  0  0
    7.1680    0.7078    0.0089 C   0  0  0  0  0  0  0  0  0  0  0  0
    7.5979   -0.3494    0.8066 C   0  0  0  0  0  0  0  0  0  0  0  0
    6.6711   -1.2574    1.3119 C   0  0  0  0  0  0  0  0  0  0  0  0
    5.3128   -1.1071    1.0189 C   0  0  0  0  0  0  0  0  0  0  0  0
    2.4648    0.1549    0.9282 C   0  0  0  0  0  0  0  0  0  0  0  0
    1.1012    0.3059    0.6416 C   0  0  0  0  0  0  0  0  0  0  0  0
   -2.0618    1.3891    0.5643 N   0  0  0  0  0  0  0  0  0  0  0  0
   -2.3504    2.6380    0.1044 C   0  0  0  0  0  0  0  0  0  0  0  0
   -2.5882    3.4389    1.1182 N   0  0  0  0  0  0  0  0  0  0  0  0
   -2.4107    2.6264    2.1996 C   0  0  0  0  0  0  0  0  0  0  0  0
   -2.0838    1.3615    1.9194 N   0  0  0  0  0  0  0  0  0  0  0  0
  1  2  1  0
  2  3  1  0
  2  4  1  0
  2  5  1  0
  5  6  1  1
  5  7  1  0
  7  8  1  6
  8  9  1  0
  9 10  2  0
 10 11  1  0
 11 12  2  0
 12 13  1  0
 13 14  2  0
 14 15  1  0
 15 16  2  0
 16 17  1  0
 17 18  2  0
 12 19  1  0
 19 20  2  0
  7 21  1  0
 21 22  1  0
 22 23  2  0
 23 24  1  0
 24 25  2  0
 20  9  1  0
 25 21  1  0
 18 13  1  0
M  END
