
     RDKit          3D

 21 21  0  0  0  0  0  0  0  0999 V2000
   -1.8782   -3.9850    1.0843 C   0  0  0  0  0  0  0  0  0  0  0  0
   -0.7792   -2.9986    0.7470 C   0  0  0  0  0  0  0  0  0  0  0  0
   -0.8616   -1.9076    1.6464 O   0  0  0  0  0  0  0  0  0  0  0  0
   -0.0924   -0.5155    1.3328 P   0  0  2  0  0  5  0  0  0  0  0  0
    0.3232    0.4504    2.9657 S   0  0  0  0  0  0  0  0  0  0  0  0
   -1.0307    0.1991    0.1823 N   0  0  0  0  0  0  0  0  0  0  0  0
   -2.2499    0.9328    0.5233 C   0  0  2  0  0  0  0  0  0  0  0  0
   -3.3670   -0.0286    0.9290 C   0  0  0  0  0  0  0  0  0  0  0  0
   -2.6326    1.7809   -0.7048 C   0  0  0  0  0  0  0  0  0  0  0  0
   -3.8041    2.7213   -0.4551 C   0  0  0  0  0  0  0  0  0  0  0  0
    1.1994   -1.0596    0.5238 O   0  0  0  0  0  0  0  0  0  0  0  0
    2.1914   -0.3239   -0.0618 C   0  0  0  0  0  0  0  0  0  0  0  0
    2.1522    1.0685   -0.1656 C   0  0  0  0  0  0  0  0  0  0  0  0
    3.1932    1.7753   -0.7947 C   0  0  0  0  0  0  0  0  0  0  0  0
    3.1189    3.2713   -0.9138 C   0  0  0  0  0  0  0  0  0  0  0  0
    4.2683    1.0753   -1.3562 C   0  0  0  0  0  0  0  0  0  0  0  0
    4.3206   -0.3140   -1.2697 C   0  0  0  0  0  0  0  0  0  0  0  0
    3.2861   -0.9976   -0.6177 C   0  0  0  0  0  0  0  0  0  0  0  0
    3.3629   -2.4485   -0.5614 N   0  0  0  0  0  4  0  0  0  0  0  0
    3.1956   -2.9971    0.5359 O   0  0  0  0  0  0  0  0  0  0  0  0
    3.6044   -3.0385   -1.6243 O   0  0  0  0  0  1  0  0  0  0  0  0
  1  2  1  0
  2  3  1  0
  3  4  1  0
  4  5  2  0
  4  6  1  6
  6  7  1  0
  7  8  1  6
  7  9  1  0
  9 10  1  0
  4 11  1  0
 11 12  1  0
 12 13  2  0
 13 14  1  0
 14 15  1  0
 14 16  2  0
 16 17  1  0
 17 18  2  0
 18 19  1  0
 19 20  2  0
 19 21  1  0
 18 12  1  0
M  CHG  2  19   1  21  -1
M  END
