
     RDKit          3D

 18 19  0  0  0  0  0  0  0  0999 V2000
    4.1127    1.3653   -0.6621 C   0  0  0  0  0  0  0  0  0  0  0  0
    2.9817    0.6639   -0.8287 C   0  0  0  0  0  0  0  0  0  0  0  0
    2.1388    0.0124    0.2420 C   0  0  2  0  0  0  0  0  0  0  0  0
    2.6947    0.0430    1.6647 C   0  0  0  0  0  0  0  0  0  0  0  0
    1.9384   -1.3480   -0.1275 O   0  0  0  0  0  0  0  0  0  0  0  0
    0.6031   -1.5825   -0.2833 C   0  0  0  0  0  0  0  0  0  0  0  0
    0.2125   -2.6977   -0.5933 O   0  0  0  0  0  0  0  0  0  0  0  0
   -0.1282   -0.4462   -0.0755 N   0  0  0  0  0  0  0  0  0  0  0  0
   -1.5555   -0.3407   -0.1701 C   0  0  0  0  0  0  0  0  0  0  0  0
   -2.2073    0.9053   -0.1384 C   0  0  0  0  0  0  0  0  0  0  0  0
   -3.6016    1.0049   -0.2308 C   0  0  0  0  0  0  0  0  0  0  0  0
   -4.3490    2.5560   -0.1944 Cl  0  0  0  0  0  0  0  0  0  0  0  0
   -4.3900   -0.1286   -0.3556 C   0  0  0  0  0  0  0  0  0  0  0  0
   -3.7688   -1.3676   -0.3878 C   0  0  0  0  0  0  0  0  0  0  0  0
   -4.7271   -2.7908   -0.5350 Cl  0  0  0  0  0  0  0  0  0  0  0  0
   -2.3750   -1.4768   -0.2976 C   0  0  0  0  0  0  0  0  0  0  0  0
    0.7303    0.5800    0.2303 C   0  0  0  0  0  0  0  0  0  0  0  0
    0.4740    1.7499    0.4869 O   0  0  0  0  0  0  0  0  0  0  0  0
  1  2  2  0
  2  3  1  0
  3  4  1  1
  3  5  1  0
  5  6  1  0
  6  7  2  0
  6  8  1  0
  8  9  1  0
  9 10  2  0
 10 11  1  0
 11 12  1  0
 11 13  2  0
 13 14  1  0
 14 15  1  0
 14 16  2  0
  8 17  1  0
 17 18  2  0
 17  3  1  0
 16  9  1  0
M  END
