
     RDKit          3D

  6  5  0  0  0  0  0  0  0  0999 V2000
   -2.6998   -0.8214    0.2224 Cl  0  0  0  0  0  0  0  0  0  0  0  0
   -1.2869    0.2612    0.0929 C   0  0  0  0  0  0  0  0  0  0  0  0
    0.0195   -0.5140   -0.0670 C   0  0  1  0  0  0  0  0  0  0  0  0
    0.0789   -1.3111   -1.8705 Br  0  0  0  0  0  0  0  0  0  0  0  0
    1.2109    0.4194    0.0984 C   0  0  0  0  0  0  0  0  0  0  0  0
    2.8607   -0.5819    0.3987 Br  0  0  0  0  0  0  0  0  0  0  0  0
  1  2  1  0
  2  3  1  0
  3  4  1  6
  3  5  1  0
  5  6  1  0
M  END
