
     RDKit          3D

 20 21  0  0  0  0  0  0  0  0999 V2000
   -3.3907   -0.1361    1.1653 C   0  0  0  0  0  0  0  0  0  0  0  0
   -2.5758   -0.6631   -0.0342 C   0  0  0  0  0  0  0  0  0  0  0  0
   -2.2338   -2.1417    0.2085 C   0  0  0  0  0  0  0  0  0  0  0  0
   -3.4923   -0.5942   -1.2788 C   0  0  0  0  0  0  0  0  0  0  0  0
   -1.2978    0.2200   -0.2687 C   0  0  2  0  0  0  0  0  0  0  0  0
   -0.6712   -0.1456   -1.4995 O   0  0  0  0  0  0  0  0  0  0  0  0
   -0.2435    0.2306    0.8832 C   0  0  1  0  0  0  0  0  0  0  0  0
    0.8640   -0.8540    0.8653 C   0  0  0  0  0  0  0  0  0  0  0  0
    2.0909   -0.6428    0.0044 C   0  0  0  0  0  0  0  0  0  0  0  0
    3.1879    0.0815    0.4977 C   0  0  0  0  0  0  0  0  0  0  0  0
    4.3248    0.2762   -0.2900 C   0  0  0  0  0  0  0  0  0  0  0  0
    4.3778   -0.2620   -1.5727 C   0  0  0  0  0  0  0  0  0  0  0  0
    5.7773   -0.0238   -2.5446 Cl  0  0  0  0  0  0  0  0  0  0  0  0
    3.3048   -0.9952   -2.0723 C   0  0  0  0  0  0  0  0  0  0  0  0
    2.1675   -1.1876   -1.2843 C   0  0  0  0  0  0  0  0  0  0  0  0
    0.3078    1.5724    1.0693 N   0  0  0  0  0  0  0  0  0  0  0  0
    0.8218    2.4225    0.1367 C   0  0  0  0  0  0  0  0  0  0  0  0
    1.1522    3.5570    0.7094 N   0  0  0  0  0  0  0  0  0  0  0  0
    0.8250    3.3470    2.0173 C   0  0  0  0  0  0  0  0  0  0  0  0
    0.3008    2.1491    2.2893 N   0  0  0  0  0  0  0  0  0  0  0  0
  1  2  1  0
  2  3  1  0
  2  4  1  0
  2  5  1  0
  5  6  1  6
  5  7  1  0
  7  8  1  6
  8  9  1  0
  9 10  2  0
 10 11  1  0
 11 12  2  0
 12 13  1  0
 12 14  1  0
 14 15  2  0
  7 16  1  0
 16 17  1  0
 17 18  2  0
 18 19  1  0
 19 20  2  0
 15  9  1  0
 20 16  1  0
M  END
