
     RDKit          3D

 27 29  0  0  0  0  0  0  0  0999 V2000
   -3.0901    1.4202   -0.2984 C   0  0  0  0  0  0  0  0  0  0  0  0
   -2.3417    0.0839   -0.1802 C   0  0  2  0  0  0  0  0  0  0  0  0
   -2.4310   -0.5881   -1.4404 O   0  0  0  0  0  0  0  0  0  0  0  0
   -3.0314   -0.8569    0.8485 C   0  0  0  0  0  0  0  0  0  0  0  0
   -4.4462   -1.0744    0.6127 N   0  0  0  0  0  0  0  0  0  0  0  0
   -5.0358   -1.8549   -0.3317 C   0  0  0  0  0  0  0  0  0  0  0  0
   -6.3374   -1.8470   -0.1568 N   0  0  0  0  0  0  0  0  0  0  0  0
   -6.4964   -1.0323    0.9270 C   0  0  0  0  0  0  0  0  0  0  0  0
   -5.3653   -0.5435    1.4432 N   0  0  0  0  0  0  0  0  0  0  0  0
   -0.8577    0.3818    0.1506 C   0  0  0  0  0  0  0  0  0  0  0  0
   -0.4761    0.5308    1.5057 C   0  0  0  0  0  0  0  0  0  0  0  0
    0.8404    0.8080    1.8825 C   0  0  0  0  0  0  0  0  0  0  0  0
    1.8213    0.9496    0.9157 C   0  0  0  0  0  0  0  0  0  0  0  0
    3.0911    1.2527    1.3468 O   0  0  0  0  0  0  0  0  0  0  0  0
    4.1331    0.5690    0.7637 C   0  0  0  0  0  0  0  0  0  0  0  0
    5.2223    1.3231    0.3242 C   0  0  0  0  0  0  0  0  0  0  0  0
    6.3244    0.6842   -0.2472 C   0  0  0  0  0  0  0  0  0  0  0  0
    6.3362   -0.7059   -0.3599 C   0  0  0  0  0  0  0  0  0  0  0  0
    7.6946   -1.4938   -1.0627 Cl  0  0  0  0  0  0  0  0  0  0  0  0
    5.2589   -1.4636    0.0999 C   0  0  0  0  0  0  0  0  0  0  0  0
    4.1557   -0.8257    0.6714 C   0  0  0  0  0  0  0  0  0  0  0  0
    1.4757    0.8723   -0.4311 C   0  0  0  0  0  0  0  0  0  0  0  0
    0.1466    0.6022   -0.8390 C   0  0  0  0  0  0  0  0  0  0  0  0
   -0.1028    0.5602   -2.3402 C   0  0  0  0  0  0  0  0  0  0  0  0
   -0.3433   -0.7101   -2.7756 F   0  0  0  0  0  0  0  0  0  0  0  0
    0.9681    0.9862   -3.0734 F   0  0  0  0  0  0  0  0  0  0  0  0
   -1.1404    1.3334   -2.7508 F   0  0  0  0  0  0  0  0  0  0  0  0
  2  1  1  6
  2  3  1  0
  2  4  1  0
  4  5  1  0
  5  6  1  0
  6  7  2  0
  7  8  1  0
  8  9  2  0
  2 10  1  0
 10 11  2  0
 11 12  1  0
 12 13  2  0
 13 14  1  0
 14 15  1  0
 15 16  2  0
 16 17  1  0
 17 18  2  0
 18 19  1  0
 18 20  1  0
 20 21  2  0
 13 22  1  0
 22 23  2  0
 23 24  1  0
 24 25  1  0
 24 26  1  0
 24 27  1  0
  9  5  1  0
 23 10  1  0
 21 15  1  0
M  END
