
     RDKit          3D

 24 26  0  0  0  0  0  0  0  0999 V2000
    6.2389   -0.9548    1.8060 C   0  0  0  0  0  0  0  0  0  0  0  0
    5.4548   -0.9338    0.5216 C   0  0  0  0  0  0  0  0  0  0  0  0
    6.2721   -0.6759   -0.7135 C   0  0  0  0  0  0  0  0  0  0  0  0
    4.1209   -1.1309    0.5143 C   0  0  0  0  0  0  0  0  0  0  0  0
    3.2317   -1.1365   -0.6548 C   0  0  1  0  0  0  0  0  0  0  0  0
    1.7728   -0.7370   -0.5972 C   0  0  1  0  0  0  0  0  0  0  0  0
    1.0356   -0.2963    0.6140 C   0  0  0  0  0  0  0  0  0  0  0  0
    1.5500   -0.0858    1.7032 O   0  0  0  0  0  0  0  0  0  0  0  0
   -0.2885   -0.1575    0.3391 O   0  0  0  0  0  0  0  0  0  0  0  0
   -1.0439    0.2451    1.4795 C   0  0  0  0  0  0  0  0  0  0  0  0
   -2.4294    0.2809    1.0990 N   0  0  0  0  0  0  0  0  0  0  0  0
   -3.2570   -0.7950    1.1278 C   0  0  0  0  0  0  0  0  0  0  0  0
   -3.0221   -1.9345    1.4854 O   0  0  0  0  0  0  0  0  0  0  0  0
   -4.5555   -0.3317    0.6321 C   0  0  0  0  0  0  0  0  0  0  0  0
   -4.4412    0.9623    0.3232 C   0  0  0  0  0  0  0  0  0  0  0  0
   -5.5355    1.8121   -0.2021 C   0  0  0  0  0  0  0  0  0  0  0  0
   -6.8945    1.1029   -0.0504 C   0  0  0  0  0  0  0  0  0  0  0  0
   -6.8188   -0.3942   -0.3925 C   0  0  0  0  0  0  0  0  0  0  0  0
   -5.7845   -1.1430    0.4675 C   0  0  0  0  0  0  0  0  0  0  0  0
   -3.0671    1.3782    0.6173 C   0  0  0  0  0  0  0  0  0  0  0  0
   -2.6358    2.5037    0.4478 O   0  0  0  0  0  0  0  0  0  0  0  0
    2.7807    0.1723   -1.2905 C   0  0  0  0  0  0  0  0  0  0  0  0
    3.1510    1.4976   -0.6631 C   0  0  0  0  0  0  0  0  0  0  0  0
    2.7432    0.2268   -2.7992 C   0  0  0  0  0  0  0  0  0  0  0  0
  1  2  1  0
  2  3  1  0
  2  4  2  3
  5  4  1  1
  5  6  1  0
  6  7  1  1
  7  8  2  0
  7  9  1  0
  9 10  1  0
 10 11  1  0
 11 12  1  0
 12 13  2  0
 12 14  1  0
 14 15  2  0
 15 16  1  0
 16 17  1  0
 17 18  1  0
 18 19  1  0
 15 20  1  0
 20 21  2  0
  6 22  1  0
 22 23  1  0
 22 24  1  0
 22  5  1  0
 20 11  1  0
 19 14  1  0
M  END
