
     RDKit          3D

 24 26  0  0  0  0  0  0  0  0999 V2000
    4.4151    0.0521    1.8808 C   0  0  0  0  0  0  0  0  0  0  0  0
    3.0704    0.5103    1.3901 C   0  0  0  0  0  0  0  0  0  0  0  0
    2.7168    1.9299    1.7432 C   0  0  0  0  0  0  0  0  0  0  0  0
    2.2240   -0.2625    0.6809 C   0  0  0  0  0  0  0  0  0  0  0  0
    2.4341   -1.6561    0.2601 C   0  0  1  0  0  0  0  0  0  0  0  0
    1.8525   -2.2184   -1.0218 C   0  0  1  0  0  0  0  0  0  0  0  0
    0.9888   -1.4399   -1.9371 C   0  0  0  0  0  0  0  0  0  0  0  0
    1.2659   -1.2619   -3.1140 O   0  0  0  0  0  0  0  0  0  0  0  0
   -0.1463   -1.0298   -1.3199 O   0  0  0  0  0  0  0  0  0  0  0  0
   -0.9795   -0.2430   -2.1660 C   0  0  0  0  0  0  0  0  0  0  0  0
   -2.0663    0.2497   -1.3663 N   0  0  0  0  0  0  0  0  0  0  0  0
   -3.2580   -0.3817   -1.2172 C   0  0  0  0  0  0  0  0  0  0  0  0
   -3.6530   -1.4077   -1.7386 O   0  0  0  0  0  0  0  0  0  0  0  0
   -4.0350    0.4210   -0.2700 C   0  0  0  0  0  0  0  0  0  0  0  0
   -3.2855    1.4613    0.1014 C   0  0  0  0  0  0  0  0  0  0  0  0
   -3.6957    2.5035    1.0708 C   0  0  0  0  0  0  0  0  0  0  0  0
   -4.9588    2.0676    1.8348 C   0  0  0  0  0  0  0  0  0  0  0  0
   -5.9909    1.3848    0.9217 C   0  0  0  0  0  0  0  0  0  0  0  0
   -5.4144    0.1540    0.1988 C   0  0  0  0  0  0  0  0  0  0  0  0
   -1.9958    1.3570   -0.5844 C   0  0  0  0  0  0  0  0  0  0  0  0
   -1.0719    2.1359   -0.4398 O   0  0  0  0  0  0  0  0  0  0  0  0
    3.3510   -1.9714   -0.9127 C   0  0  0  0  0  0  0  0  0  0  0  0
    4.2427   -3.1832   -0.7857 C   0  0  0  0  0  0  0  0  0  0  0  0
    3.9824   -0.8566   -1.7159 C   0  0  0  0  0  0  0  0  0  0  0  0
  1  2  1  0
  2  3  1  0
  2  4  2  3
  5  4  1  6
  5  6  1  0
  6  7  1  6
  7  8  2  0
  7  9  1  0
  9 10  1  0
 10 11  1  0
 11 12  1  0
 12 13  2  0
 12 14  1  0
 14 15  2  0
 15 16  1  0
 16 17  1  0
 17 18  1  0
 18 19  1  0
 15 20  1  0
 20 21  2  0
  6 22  1  0
 22 23  1  0
 22 24  1  0
 22  5  1  0
 20 11  1  0
 19 14  1  0
M  END
