
     RDKit          3D

 18 19  0  0  0  0  0  0  0  0999 V2000
   -4.2476   -0.8056   -1.1017 C   0  0  0  0  0  0  0  0  0  0  0  0
   -3.0405   -0.9392   -0.5328 C   0  0  0  0  0  0  0  0  0  0  0  0
   -2.1343    0.1598   -0.0318 C   0  0  1  0  0  0  0  0  0  0  0  0
   -2.6919    1.5817   -0.0744 C   0  0  0  0  0  0  0  0  0  0  0  0
   -1.7883   -0.1448    1.3162 O   0  0  0  0  0  0  0  0  0  0  0  0
   -0.4298   -0.2087    1.4297 C   0  0  0  0  0  0  0  0  0  0  0  0
    0.0852   -0.3636    2.5265 O   0  0  0  0  0  0  0  0  0  0  0  0
    0.1758   -0.0663    0.2128 N   0  0  0  0  0  0  0  0  0  0  0  0
    1.5873   -0.1176   -0.0309 C   0  0  0  0  0  0  0  0  0  0  0  0
    2.4944   -0.5367    0.9587 C   0  0  0  0  0  0  0  0  0  0  0  0
    3.8728   -0.5841    0.7135 C   0  0  0  0  0  0  0  0  0  0  0  0
    4.9414   -1.1130    1.9560 Cl  0  0  0  0  0  0  0  0  0  0  0  0
    4.3904   -0.2151   -0.5188 C   0  0  0  0  0  0  0  0  0  0  0  0
    3.5137    0.2027   -1.5083 C   0  0  0  0  0  0  0  0  0  0  0  0
    4.1330    0.6740   -3.0445 Cl  0  0  0  0  0  0  0  0  0  0  0  0
    2.1338    0.2517   -1.2731 C   0  0  0  0  0  0  0  0  0  0  0  0
   -0.7924    0.1169   -0.7423 C   0  0  0  0  0  0  0  0  0  0  0  0
   -0.6661    0.2232   -1.9559 O   0  0  0  0  0  0  0  0  0  0  0  0
  1  2  2  0
  2  3  1  0
  3  4  1  1
  3  5  1  0
  5  6  1  0
  6  7  2  0
  6  8  1  0
  8  9  1  0
  9 10  2  0
 10 11  1  0
 11 12  1  0
 11 13  2  0
 13 14  1  0
 14 15  1  0
 14 16  2  0
  8 17  1  0
 17 18  2  0
 17  3  1  0
 16  9  1  0
M  END
