
     RDKit          3D

 20 21  0  0  0  0  0  0  0  0999 V2000
   -3.2434    2.2627   -0.3796 C   0  0  0  0  0  0  0  0  0  0  0  0
   -2.4141    1.0115    0.0162 C   0  0  0  0  0  0  0  0  0  0  0  0
   -2.0509    1.1723    1.5004 C   0  0  0  0  0  0  0  0  0  0  0  0
   -3.3496   -0.2027   -0.1442 C   0  0  0  0  0  0  0  0  0  0  0  0
   -1.1499    0.9400   -0.9108 C   0  0  2  0  0  0  0  0  0  0  0  0
   -1.5431    0.6214   -2.2610 O   0  0  0  0  0  0  0  0  0  0  0  0
    0.0657    0.0247   -0.5694 C   0  0  1  0  0  0  0  0  0  0  0  0
    0.9662    0.5987    0.5501 C   0  0  0  0  0  0  0  0  0  0  0  0
    2.4171    0.1835    0.4055 C   0  0  0  0  0  0  0  0  0  0  0  0
    3.2887    0.9201   -0.4104 C   0  0  0  0  0  0  0  0  0  0  0  0
    4.6207    0.5263   -0.5576 C   0  0  0  0  0  0  0  0  0  0  0  0
    5.0863   -0.6062    0.1068 C   0  0  0  0  0  0  0  0  0  0  0  0
    6.7272   -1.0901   -0.0768 Cl  0  0  0  0  0  0  0  0  0  0  0  0
    4.2314   -1.3486    0.9172 C   0  0  0  0  0  0  0  0  0  0  0  0
    2.8999   -0.9546    1.0659 C   0  0  0  0  0  0  0  0  0  0  0  0
   -0.2863   -1.3743   -0.3893 N   0  0  0  0  0  0  0  0  0  0  0  0
   -0.4834   -2.3010   -1.3707 C   0  0  0  0  0  0  0  0  0  0  0  0
   -0.7298   -3.4724   -0.8312 N   0  0  0  0  0  0  0  0  0  0  0  0
   -0.6699   -3.2107    0.5060 C   0  0  0  0  0  0  0  0  0  0  0  0
   -0.4024   -1.9427    0.8298 N   0  0  0  0  0  0  0  0  0  0  0  0
  1  2  1  0
  2  3  1  0
  2  4  1  0
  2  5  1  0
  5  6  1  6
  5  7  1  0
  7  8  1  1
  8  9  1  0
  9 10  2  0
 10 11  1  0
 11 12  2  0
 12 13  1  0
 12 14  1  0
 14 15  2  0
  7 16  1  0
 16 17  1  0
 17 18  2  0
 18 19  1  0
 19 20  2  0
 15  9  1  0
 20 16  1  0
M  END
