
     RDKit          3D

 21 22  0  0  0  0  0  0  0  0999 V2000
   -3.5084   -1.8620   -0.3292 C   0  0  0  0  0  0  0  0  0  0  0  0
   -2.4924   -0.8003    0.1680 C   0  0  0  0  0  0  0  0  0  0  0  0
   -3.2781    0.5159    0.3289 C   0  0  0  0  0  0  0  0  0  0  0  0
   -1.9968   -1.2501    1.5498 C   0  0  0  0  0  0  0  0  0  0  0  0
   -1.3381   -0.7136   -0.8888 C   0  0  1  0  0  0  0  0  0  0  0  0
   -1.8831   -0.2256   -2.1305 O   0  0  0  0  0  0  0  0  0  0  0  0
   -0.0015    0.0355   -0.5887 C   0  0  2  0  0  0  0  0  0  0  0  0
    0.9395   -0.7456    0.3619 C   0  0  0  0  0  0  0  0  0  0  0  0
    2.4144   -0.4954    0.0929 C   0  0  0  0  0  0  0  0  0  0  0  0
    3.1286    0.3812    0.9273 C   0  0  0  0  0  0  0  0  0  0  0  0
    4.4810    0.6446    0.6965 C   0  0  0  0  0  0  0  0  0  0  0  0
    5.1360    0.0319   -0.3676 C   0  0  0  0  0  0  0  0  0  0  0  0
    6.8018    0.3577   -0.6462 Cl  0  0  0  0  0  0  0  0  0  0  0  0
    4.4535   -0.8455   -1.2034 C   0  0  0  0  0  0  0  0  0  0  0  0
    3.1008   -1.1089   -0.9735 C   0  0  0  0  0  0  0  0  0  0  0  0
    2.3156   -2.2209   -2.0390 Cl  0  0  0  0  0  0  0  0  0  0  0  0
   -0.2058    1.4362   -0.2485 N   0  0  0  0  0  0  0  0  0  0  0  0
   -0.0298    2.0973    0.9269 C   0  0  0  0  0  0  0  0  0  0  0  0
   -0.3227    3.3675    0.7712 N   0  0  0  0  0  0  0  0  0  0  0  0
   -0.6988    3.4397   -0.5372 C   0  0  0  0  0  0  0  0  0  0  0  0
   -0.6662    2.2810   -1.1999 N   0  0  0  0  0  0  0  0  0  0  0  0
  1  2  1  0
  2  3  1  0
  2  4  1  0
  2  5  1  0
  5  6  1  6
  5  7  1  0
  7  8  1  1
  8  9  1  0
  9 10  2  0
 10 11  1  0
 11 12  2  0
 12 13  1  0
 12 14  1  0
 14 15  2  0
 15 16  1  0
  7 17  1  0
 17 18  1  0
 18 19  2  0
 19 20  1  0
 20 21  2  0
 15  9  1  0
 21 17  1  0
M  END
