
     RDKit          3D

 20 21  0  0  0  0  0  0  0  0999 V2000
   -3.1075    0.7660    0.0602 C   0  0  0  0  0  0  0  0  0  0  0  0
   -2.1234   -0.4169    0.0908 C   0  0  0  0  0  0  0  0  0  0  0  0
   -2.7566   -1.5502   -0.7552 C   0  0  0  0  0  0  0  0  0  0  0  0
   -2.0035   -0.9337    1.5365 C   0  0  0  0  0  0  0  0  0  0  0  0
   -0.7119   -0.0707   -0.5028 C   0  0  1  0  0  0  0  0  0  0  0  0
   -0.8285    0.4981   -1.8146 O   0  0  0  0  0  0  0  0  0  0  0  0
    0.2546    0.8003    0.3539 C   0  0  1  0  0  0  0  0  0  0  0  0
    1.6568    0.9430   -0.2860 C   0  0  0  0  0  0  0  0  0  0  0  0
    2.4267   -0.3561   -0.3654 C   0  0  0  0  0  0  0  0  0  0  0  0
    2.9569   -0.9395    0.7944 C   0  0  0  0  0  0  0  0  0  0  0  0
    3.6555   -2.1466    0.7221 C   0  0  0  0  0  0  0  0  0  0  0  0
    3.8288   -2.7739   -0.5095 C   0  0  0  0  0  0  0  0  0  0  0  0
    4.6868   -4.2624   -0.5978 Cl  0  0  0  0  0  0  0  0  0  0  0  0
    3.3113   -2.2035   -1.6702 C   0  0  0  0  0  0  0  0  0  0  0  0
    2.6126   -0.9965   -1.5988 C   0  0  0  0  0  0  0  0  0  0  0  0
   -0.2535    2.1308    0.6572 N   0  0  0  0  0  0  0  0  0  0  0  0
   -0.5800    3.1373   -0.2007 C   0  0  0  0  0  0  0  0  0  0  0  0
   -0.9136    4.2082    0.4825 N   0  0  0  0  0  0  0  0  0  0  0  0
   -0.7583    3.8063    1.7772 C   0  0  0  0  0  0  0  0  0  0  0  0
   -0.3444    2.5468    1.9381 N   0  0  0  0  0  0  0  0  0  0  0  0
  1  2  1  0
  2  3  1  0
  2  4  1  0
  2  5  1  0
  5  6  1  6
  5  7  1  0
  7  8  1  6
  8  9  1  0
  9 10  2  0
 10 11  1  0
 11 12  2  0
 12 13  1  0
 12 14  1  0
 14 15  2  0
  7 16  1  0
 16 17  1  0
 17 18  2  0
 18 19  1  0
 19 20  2  0
 15  9  1  0
 20 16  1  0
M  END
