
     RDKit          3D

 19 20  0  0  0  0  0  0  0  0999 V2000
   -0.5035    2.1714   -1.3233 O   0  0  0  0  0  0  0  0  0  0  0  0
   -1.1368    1.4465   -0.5705 C   0  0  0  0  0  0  0  0  0  0  0  0
   -2.6071    1.6552   -0.2528 C   0  0  2  0  0  0  0  0  0  0  0  0
   -2.7339    2.9339    0.9818 Cl  0  0  0  0  0  0  0  0  0  0  0  0
   -3.0475    0.3010    0.2962 C   0  0  1  0  0  0  0  0  0  0  0  0
   -3.5153   -0.6042   -0.8492 C   0  0  0  0  0  0  0  0  0  0  0  0
   -4.1470   -2.1514   -0.2320 Cl  0  0  0  0  0  0  0  0  0  0  0  0
   -1.7747   -0.2151    0.9605 C   0  0  0  0  0  0  0  0  0  0  0  0
   -0.6961    0.3276    0.1608 N   0  0  0  0  0  0  0  0  0  0  0  0
    0.6394   -0.1574    0.2410 C   0  0  0  0  0  0  0  0  0  0  0  0
    0.9855   -1.1505    1.1709 C   0  0  0  0  0  0  0  0  0  0  0  0
    2.2928   -1.6389    1.2637 C   0  0  0  0  0  0  0  0  0  0  0  0
    3.2849   -1.1448    0.4238 C   0  0  0  0  0  0  0  0  0  0  0  0
    2.9752   -0.1601   -0.5200 C   0  0  0  0  0  0  0  0  0  0  0  0
    4.0368    0.4019   -1.4337 C   0  0  0  0  0  0  0  0  0  0  0  0
    4.4439    1.6449   -1.0572 F   0  0  0  0  0  0  0  0  0  0  0  0
    3.6186    0.5154   -2.7248 F   0  0  0  0  0  0  0  0  0  0  0  0
    5.1661   -0.3610   -1.4789 F   0  0  0  0  0  0  0  0  0  0  0  0
    1.6547    0.3266   -0.5956 C   0  0  0  0  0  0  0  0  0  0  0  0
  1  2  2  0
  2  3  1  0
  3  4  1  1
  3  5  1  0
  5  6  1  6
  6  7  1  0
  5  8  1  0
  8  9  1  0
  9 10  1  0
 10 11  2  0
 11 12  1  0
 12 13  2  0
 13 14  1  0
 14 15  1  0
 15 16  1  0
 15 17  1  0
 15 18  1  0
 14 19  2  0
  9  2  1  0
 19 10  1  0
M  END
