
     RDKit          3D

 24 26  0  0  0  0  0  0  0  0999 V2000
    4.0081   -3.5863   -0.6910 C   0  0  0  0  0  0  0  0  0  0  0  0
    3.7233   -2.1706   -0.2680 C   0  0  0  0  0  0  0  0  0  0  0  0
    4.5322   -1.6854    0.9034 C   0  0  0  0  0  0  0  0  0  0  0  0
    2.8081   -1.4184   -0.9102 C   0  0  0  0  0  0  0  0  0  0  0  0
    2.4224   -0.0342   -0.6020 C   0  0  2  0  0  0  0  0  0  0  0  0
    1.9669    0.8663   -1.7342 C   0  0  1  0  0  0  0  0  0  0  0  0
    0.8111    1.7761   -1.5675 C   0  0  0  0  0  0  0  0  0  0  0  0
    0.8258    2.9262   -1.9804 O   0  0  0  0  0  0  0  0  0  0  0  0
   -0.2270    1.1656   -0.9450 O   0  0  0  0  0  0  0  0  0  0  0  0
   -1.3483    2.0288   -0.7770 C   0  0  0  0  0  0  0  0  0  0  0  0
   -2.3933    1.2696   -0.1488 N   0  0  0  0  0  0  0  0  0  0  0  0
   -3.3293    0.5528   -0.8211 C   0  0  0  0  0  0  0  0  0  0  0  0
   -3.4934    0.4433   -2.0220 O   0  0  0  0  0  0  0  0  0  0  0  0
   -4.1614   -0.0955    0.1945 C   0  0  0  0  0  0  0  0  0  0  0  0
   -3.6892    0.2480    1.3953 C   0  0  0  0  0  0  0  0  0  0  0  0
   -4.2590   -0.1891    2.6906 C   0  0  0  0  0  0  0  0  0  0  0  0
   -5.6485   -0.8199    2.4866 C   0  0  0  0  0  0  0  0  0  0  0  0
   -5.7004   -1.7356    1.2524 C   0  0  0  0  0  0  0  0  0  0  0  0
   -5.3115   -0.9985   -0.0429 C   0  0  0  0  0  0  0  0  0  0  0  0
   -2.5412    1.1345    1.1935 C   0  0  0  0  0  0  0  0  0  0  0  0
   -1.8853    1.6299    2.0903 O   0  0  0  0  0  0  0  0  0  0  0  0
    3.2906    1.1376   -1.0319 C   0  0  0  0  0  0  0  0  0  0  0  0
    3.4002    2.2960   -0.0671 C   0  0  0  0  0  0  0  0  0  0  0  0
    4.5482    0.9158   -1.8388 C   0  0  0  0  0  0  0  0  0  0  0  0
  1  2  1  0
  2  3  1  0
  2  4  2  3
  5  4  1  6
  5  6  1  0
  6  7  1  1
  7  8  2  0
  7  9  1  0
  9 10  1  0
 10 11  1  0
 11 12  1  0
 12 13  2  0
 12 14  1  0
 14 15  2  0
 15 16  1  0
 16 17  1  0
 17 18  1  0
 18 19  1  0
 15 20  1  0
 20 21  2  0
  6 22  1  0
 22 23  1  0
 22 24  1  0
 22  5  1  0
 20 11  1  0
 19 14  1  0
M  END
