
     RDKit          3D

 20 21  0  0  0  0  0  0  0  0999 V2000
   -2.4855    0.7692    1.4056 C   0  0  0  0  0  0  0  0  0  0  0  0
   -1.6516   -0.3493    0.7595 C   0  0  0  0  0  0  0  0  0  0  0  0
   -2.6200   -1.5117    0.4354 C   0  0  0  0  0  0  0  0  0  0  0  0
   -0.6424   -0.8606    1.8051 C   0  0  0  0  0  0  0  0  0  0  0  0
   -0.9172    0.0926   -0.5596 C   0  0  1  0  0  0  0  0  0  0  0  0
   -1.8518    0.4871   -1.5651 O   0  0  0  0  0  0  0  0  0  0  0  0
    0.1786    1.1550   -0.4500 C   0  0  0  0  0  0  0  0  0  0  0  0
    1.4962    0.8201   -0.4441 C   0  0  0  0  0  0  0  0  0  0  0  0
    2.0891   -0.5141   -0.5742 C   0  0  0  0  0  0  0  0  0  0  0  0
    2.7210   -1.1021    0.5271 C   0  0  0  0  0  0  0  0  0  0  0  0
    3.3033   -2.3669    0.4117 C   0  0  0  0  0  0  0  0  0  0  0  0
    3.2650   -3.0378   -0.8092 C   0  0  0  0  0  0  0  0  0  0  0  0
    3.9797   -4.5961   -0.9508 Cl  0  0  0  0  0  0  0  0  0  0  0  0
    2.6552   -2.4528   -1.9174 C   0  0  0  0  0  0  0  0  0  0  0  0
    2.0724   -1.1885   -1.8014 C   0  0  0  0  0  0  0  0  0  0  0  0
   -0.1618    2.5371   -0.3750 N   0  0  0  0  0  0  0  0  0  0  0  0
   -1.3943    3.1552   -0.5541 C   0  0  0  0  0  0  0  0  0  0  0  0
   -1.3279    4.4541   -0.3780 N   0  0  0  0  0  0  0  0  0  0  0  0
   -0.0144    4.6441   -0.1206 C   0  0  0  0  0  0  0  0  0  0  0  0
    0.7373    3.5478   -0.1156 N   0  0  0  0  0  0  0  0  0  0  0  0
  1  2  1  0
  2  3  1  0
  2  4  1  0
  2  5  1  0
  5  6  1  6
  5  7  1  0
  7  8  2  0
  8  9  1  0
  9 10  2  0
 10 11  1  0
 11 12  2  0
 12 13  1  0
 12 14  1  0
 14 15  2  0
  7 16  1  0
 16 17  1  0
 17 18  2  0
 18 19  1  0
 19 20  2  0
 15  9  1  0
 20 16  1  0
M  END
