
     RDKit          3D

 20 21  0  0  0  0  0  0  0  0999 V2000
   -3.1007   -0.6333   -0.5363 C   0  0  0  0  0  0  0  0  0  0  0  0
   -2.1251    0.4900   -0.1424 C   0  0  0  0  0  0  0  0  0  0  0  0
   -2.2196    0.7398    1.3742 C   0  0  0  0  0  0  0  0  0  0  0  0
   -2.6186    1.7797   -0.8478 C   0  0  0  0  0  0  0  0  0  0  0  0
   -0.6439    0.2042   -0.5782 C   0  0  2  0  0  0  0  0  0  0  0  0
   -0.5599   -0.0959   -1.9750 O   0  0  0  0  0  0  0  0  0  0  0  0
    0.1922   -0.8282    0.2462 C   0  0  2  0  0  0  0  0  0  0  0  0
    1.6414   -0.9792   -0.2773 C   0  0  0  0  0  0  0  0  0  0  0  0
    2.4807    0.2678   -0.1046 C   0  0  0  0  0  0  0  0  0  0  0  0
    2.7426    1.0998   -1.2024 C   0  0  0  0  0  0  0  0  0  0  0  0
    3.5020    2.2608   -1.0452 C   0  0  0  0  0  0  0  0  0  0  0  0
    4.0046    2.5935    0.2103 C   0  0  0  0  0  0  0  0  0  0  0  0
    4.9377    4.0256    0.4060 Cl  0  0  0  0  0  0  0  0  0  0  0  0
    3.7559    1.7742    1.3095 C   0  0  0  0  0  0  0  0  0  0  0  0
    2.9959    0.6129    1.1530 C   0  0  0  0  0  0  0  0  0  0  0  0
   -0.4017   -2.1531    0.3709 N   0  0  0  0  0  0  0  0  0  0  0  0
   -0.7576   -2.7848    1.5274 C   0  0  0  0  0  0  0  0  0  0  0  0
   -1.1710   -4.0013    1.2599 N   0  0  0  0  0  0  0  0  0  0  0  0
   -1.0183   -4.0831   -0.0940 C   0  0  0  0  0  0  0  0  0  0  0  0
   -0.5318   -2.9867   -0.6785 N   0  0  0  0  0  0  0  0  0  0  0  0
  1  2  1  0
  2  3  1  0
  2  4  1  0
  2  5  1  0
  5  6  1  6
  5  7  1  0
  7  8  1  6
  8  9  1  0
  9 10  2  0
 10 11  1  0
 11 12  2  0
 12 13  1  0
 12 14  1  0
 14 15  2  0
  7 16  1  0
 16 17  1  0
 17 18  2  0
 18 19  1  0
 19 20  2  0
 15  9  1  0
 20 16  1  0
M  END
