
     RDKit          3D

 12 11  0  0  0  0  0  0  0  0999 V2000
    1.4744   -1.6019    0.6425 C   0  0  0  0  0  0  0  0  0  0  0  0
    2.0225   -0.1742    0.6568 C   0  0  1  0  0  0  0  0  0  0  0  0
    3.5463   -0.1543    0.4459 C   0  0  0  0  0  0  0  0  0  0  0  0
    3.9732   -0.6512   -0.9129 C   0  0  0  0  0  0  0  0  0  0  0  0
    4.5658    0.0477   -1.7290 O   0  0  0  0  0  0  0  0  0  0  0  0
    1.3109    0.7616   -0.3445 C   0  0  0  0  0  0  0  0  0  0  0  0
   -0.1886    0.9616   -0.0749 C   0  0  0  0  0  0  0  0  0  0  0  0
   -1.0738    0.0684   -0.9522 C   0  0  0  0  0  0  0  0  0  0  0  0
   -2.5903    0.1770   -0.6885 C   0  0  0  0  0  0  0  0  0  0  0  0
   -3.1236    1.5889   -0.9324 C   0  0  0  0  0  0  0  0  0  0  0  0
   -2.9737   -0.3008    0.7139 C   0  0  0  0  0  0  0  0  0  0  0  0
   -3.2499   -0.6782   -1.6319 O   0  0  0  0  0  0  0  0  0  0  0  0
  2  1  1  6
  2  3  1  0
  3  4  1  0
  4  5  2  0
  2  6  1  0
  6  7  1  0
  7  8  1  0
  8  9  1  0
  9 10  1  0
  9 11  1  0
  9 12  1  0
M  END
