
     RDKit          3D

 19 19  0  0  0  0  0  0  0  0999 V2000
   -2.7590   -3.3476   -0.4785 C   0  0  0  0  0  0  0  0  0  0  0  0
   -1.4619   -2.5765   -0.6109 C   0  0  0  0  0  0  0  0  0  0  0  0
   -1.6117   -1.3037   -0.0061 O   0  0  0  0  0  0  0  0  0  0  0  0
   -1.7675   -0.0245   -0.9785 P   0  0  1  0  0  5  0  0  0  0  0  0
   -2.7917   -0.2481   -2.0519 O   0  0  0  0  0  0  0  0  0  0  0  0
   -2.0508    1.2802   -0.0218 N   0  0  0  0  0  0  0  0  0  0  0  0
   -3.3987    1.5015    0.5002 C   0  0  0  0  0  0  0  0  0  0  0  0
   -3.8145    0.4042    1.4774 C   0  0  0  0  0  0  0  0  0  0  0  0
   -3.4375    2.8622    1.1982 C   0  0  0  0  0  0  0  0  0  0  0  0
   -0.2883    0.1482   -1.5974 O   0  0  0  0  0  0  0  0  0  0  0  0
    0.8848    0.3070   -0.9166 C   0  0  0  0  0  0  0  0  0  0  0  0
    1.0064    0.3107    0.4667 C   0  0  0  0  0  0  0  0  0  0  0  0
    2.2634    0.4822    1.0532 C   0  0  0  0  0  0  0  0  0  0  0  0
    3.4112    0.6447    0.2649 C   0  0  0  0  0  0  0  0  0  0  0  0
    4.9810    0.8643    1.0957 S   0  0  0  0  0  0  0  0  0  0  0  0
    5.2991   -0.8612    1.5455 C   0  0  0  0  0  0  0  0  0  0  0  0
    3.2940    0.6494   -1.1361 C   0  0  0  0  0  0  0  0  0  0  0  0
    4.4820    0.8348   -2.0403 C   0  0  0  0  0  0  0  0  0  0  0  0
    2.0223    0.4754   -1.7101 C   0  0  0  0  0  0  0  0  0  0  0  0
  1  2  1  0
  2  3  1  0
  3  4  1  0
  4  5  2  0
  4  6  1  1
  6  7  1  0
  7  8  1  0
  7  9  1  0
  4 10  1  0
 10 11  1  0
 11 12  2  0
 12 13  1  0
 13 14  2  0
 14 15  1  0
 15 16  1  0
 14 17  1  0
 17 18  1  0
 17 19  2  0
 19 11  1  0
M  END
