
     RDKit          3D

 24 25  0  0  0  0  0  0  0  0999 V2000
   -0.3087   -3.7839    0.5643 C   0  0  0  0  0  0  0  0  0  0  0  0
   -0.6078   -2.4358    0.2024 O   0  0  0  0  0  0  0  0  0  0  0  0
   -1.7315   -2.2854   -0.5541 C   0  0  0  0  0  0  0  0  0  0  0  0
   -2.4997   -3.2031   -0.8268 O   0  0  0  0  0  0  0  0  0  0  0  0
   -1.9925   -0.8128   -0.9293 C   0  0  2  0  0  0  0  0  0  0  0  0
   -2.5935   -0.7087   -2.3344 C   0  0  0  0  0  0  0  0  0  0  0  0
   -0.8307    0.0877   -0.7084 N   0  0  0  0  0  0  0  0  0  0  0  0
    0.3474   -0.1513   -1.4205 C   0  0  0  0  0  0  0  0  0  0  0  0
    0.4231   -1.0352   -2.2824 O   0  0  0  0  0  0  0  0  0  0  0  0
    1.5968    0.6396   -1.0366 C   0  0  0  0  0  0  0  0  0  0  0  0
    2.5131   -0.1488   -0.1298 C   0  0  0  0  0  0  0  0  0  0  0  0
    2.5591    0.1188    1.2457 C   0  0  0  0  0  0  0  0  0  0  0  0
    3.3997   -0.6187    2.0819 C   0  0  0  0  0  0  0  0  0  0  0  0
    4.2008   -1.6292    1.5522 C   0  0  0  0  0  0  0  0  0  0  0  0
    4.1588   -1.9067    0.1873 C   0  0  0  0  0  0  0  0  0  0  0  0
    3.3163   -1.1731   -0.6500 C   0  0  0  0  0  0  0  0  0  0  0  0
   -1.1052    1.3278   -0.0585 C   0  0  0  0  0  0  0  0  0  0  0  0
   -1.3612    1.3380    1.3337 C   0  0  0  0  0  0  0  0  0  0  0  0
   -1.3038    0.0959    2.1821 C   0  0  0  0  0  0  0  0  0  0  0  0
   -1.6604    2.5541    1.9687 C   0  0  0  0  0  0  0  0  0  0  0  0
   -1.6830    3.7465    1.2522 C   0  0  0  0  0  0  0  0  0  0  0  0
   -1.4177    3.7400   -0.1133 C   0  0  0  0  0  0  0  0  0  0  0  0
   -1.1430    2.5397   -0.7915 C   0  0  0  0  0  0  0  0  0  0  0  0
   -0.8733    2.6350   -2.2707 C   0  0  0  0  0  0  0  0  0  0  0  0
  1  2  1  0
  2  3  1  0
  3  4  2  0
  3  5  1  0
  5  6  1  6
  5  7  1  0
  7  8  1  0
  8  9  2  0
  8 10  1  0
 10 11  1  0
 11 12  2  0
 12 13  1  0
 13 14  2  0
 14 15  1  0
 15 16  2  0
  7 17  1  0
 17 18  2  0
 18 19  1  0
 18 20  1  0
 20 21  2  0
 21 22  1  0
 22 23  2  0
 23 24  1  0
 16 11  1  0
 23 17  1  0
M  END
