
     RDKit          3D

 30 32  0  0  0  0  0  0  0  0999 V2000
   -0.1984    2.8127   -0.2402 C   0  0  0  0  0  0  0  0  0  0  0  0
   -1.5048    2.1639    0.2425 C   0  0  0  0  0  0  0  0  0  0  0  0
   -2.3504    3.2350    0.9455 C   0  0  0  0  0  0  0  0  0  0  0  0
   -2.2817    1.5053   -0.9349 C   0  0  1  0  0  0  0  0  0  0  0  0
   -1.4088    0.5197   -1.7076 C   0  0  0  0  0  0  0  0  0  0  0  0
   -1.1481    0.6250   -2.8991 O   0  0  0  0  0  0  0  0  0  0  0  0
   -0.9515   -0.4787   -0.9082 O   0  0  0  0  0  0  0  0  0  0  0  0
   -0.1282   -1.4573   -1.5738 C   0  0  2  0  0  0  0  0  0  0  0  0
   -0.9523   -2.4559   -2.2926 C   0  0  0  0  0  0  0  0  0  0  0  0
   -1.6059   -3.2417   -2.8456 N   0  0  0  0  0  0  0  0  0  0  0  0
    0.7223   -2.0896   -0.4829 C   0  0  0  0  0  0  0  0  0  0  0  0
    0.1388   -2.8291    0.5626 C   0  0  0  0  0  0  0  0  0  0  0  0
    0.9303   -3.3973    1.5629 C   0  0  0  0  0  0  0  0  0  0  0  0
    2.3122   -3.2209    1.5436 C   0  0  0  0  0  0  0  0  0  0  0  0
    2.9010   -2.4640    0.5325 C   0  0  0  0  0  0  0  0  0  0  0  0
    4.2723   -2.3447    0.5601 O   0  0  0  0  0  0  0  0  0  0  0  0
    4.7975   -1.0941    0.3234 C   0  0  0  0  0  0  0  0  0  0  0  0
    4.3659    0.0424    1.0134 C   0  0  0  0  0  0  0  0  0  0  0  0
    4.9586    1.2782    0.7497 C   0  0  0  0  0  0  0  0  0  0  0  0
    5.9883    1.3730   -0.1883 C   0  0  0  0  0  0  0  0  0  0  0  0
    6.4329    0.2320   -0.8585 C   0  0  0  0  0  0  0  0  0  0  0  0
    5.8424   -1.0050   -0.5968 C   0  0  0  0  0  0  0  0  0  0  0  0
    2.1167   -1.9173   -0.4886 C   0  0  0  0  0  0  0  0  0  0  0  0
   -3.6023    0.8437   -0.5505 C   0  0  0  0  0  0  0  0  0  0  0  0
   -4.7391    1.0610   -1.3475 C   0  0  0  0  0  0  0  0  0  0  0  0
   -5.9584    0.4552   -1.0329 C   0  0  0  0  0  0  0  0  0  0  0  0
   -6.0511   -0.3796    0.0771 C   0  0  0  0  0  0  0  0  0  0  0  0
   -7.5525   -1.1232    0.4673 Cl  0  0  0  0  0  0  0  0  0  0  0  0
   -4.9334   -0.6178    0.8722 C   0  0  0  0  0  0  0  0  0  0  0  0
   -3.7136   -0.0124    0.5581 C   0  0  0  0  0  0  0  0  0  0  0  0
  1  2  1  0
  2  3  1  0
  4  2  1  1
  4  5  1  0
  5  6  2  0
  5  7  1  0
  7  8  1  0
  8  9  1  1
  9 10  3  0
  8 11  1  0
 11 12  2  0
 12 13  1  0
 13 14  2  0
 14 15  1  0
 15 16  1  0
 16 17  1  0
 17 18  2  0
 18 19  1  0
 19 20  2  0
 20 21  1  0
 21 22  2  0
 15 23  2  0
  4 24  1  0
 24 25  2  0
 25 26  1  0
 26 27  2  0
 27 28  1  0
 27 29  1  0
 29 30  2  0
 23 11  1  0
 30 24  1  0
 22 17  1  0
M  END
