
     RDKit          3D

 21 22  0  0  0  0  0  0  0  0999 V2000
   -3.8753   -0.4623   -1.2756 C   0  0  0  0  0  0  0  0  0  0  0  0
   -2.7115    0.1373   -0.4487 C   0  0  0  0  0  0  0  0  0  0  0  0
   -2.5022    1.5909   -0.9103 C   0  0  0  0  0  0  0  0  0  0  0  0
   -3.1646    0.1454    1.0215 C   0  0  0  0  0  0  0  0  0  0  0  0
   -1.4301   -0.7245   -0.7130 C   0  0  2  0  0  0  0  0  0  0  0  0
   -1.6433   -2.0783   -0.2953 O   0  0  0  0  0  0  0  0  0  0  0  0
   -0.0534   -0.1954   -0.2094 C   0  0  2  0  0  0  0  0  0  0  0  0
    1.0950   -1.0684   -0.7777 C   0  0  0  0  0  0  0  0  0  0  0  0
    2.4568   -0.4011   -0.6910 C   0  0  0  0  0  0  0  0  0  0  0  0
    2.7529    0.6290   -1.6039 C   0  0  0  0  0  0  0  0  0  0  0  0
    3.9796    1.2940   -1.5598 C   0  0  0  0  0  0  0  0  0  0  0  0
    4.9255    0.9365   -0.6042 C   0  0  0  0  0  0  0  0  0  0  0  0
    6.4352    1.7589   -0.5501 Cl  0  0  0  0  0  0  0  0  0  0  0  0
    4.6586   -0.0821    0.3048 C   0  0  0  0  0  0  0  0  0  0  0  0
    3.4316   -0.7508    0.2611 C   0  0  0  0  0  0  0  0  0  0  0  0
    3.1822   -2.0097    1.4156 Cl  0  0  0  0  0  0  0  0  0  0  0  0
    0.0427   -0.1165    1.2385 N   0  0  0  0  0  0  0  0  0  0  0  0
    0.5065    0.9210    1.9867 C   0  0  0  0  0  0  0  0  0  0  0  0
    0.4568    0.6000    3.2583 N   0  0  0  0  0  0  0  0  0  0  0  0
   -0.0407   -0.6716    3.2375 C   0  0  0  0  0  0  0  0  0  0  0  0
   -0.3263   -1.1513    2.0228 N   0  0  0  0  0  0  0  0  0  0  0  0
  1  2  1  0
  2  3  1  0
  2  4  1  0
  2  5  1  0
  5  6  1  1
  5  7  1  0
  7  8  1  1
  8  9  1  0
  9 10  2  0
 10 11  1  0
 11 12  2  0
 12 13  1  0
 12 14  1  0
 14 15  2  0
 15 16  1  0
  7 17  1  0
 17 18  1  0
 18 19  2  0
 19 20  1  0
 20 21  2  0
 15  9  1  0
 21 17  1  0
M  END
