
     RDKit          3D

 24 26  0  0  0  0  0  0  0  0999 V2000
   -6.2584   -0.1489   -1.0512 C   0  0  0  0  0  0  0  0  0  0  0  0
   -5.3806   -1.0162   -0.1923 C   0  0  0  0  0  0  0  0  0  0  0  0
   -6.1162   -1.8734    0.8020 C   0  0  0  0  0  0  0  0  0  0  0  0
   -4.0346   -1.0433   -0.2770 C   0  0  0  0  0  0  0  0  0  0  0  0
   -3.1890   -0.2683   -1.1938 C   0  0  2  0  0  0  0  0  0  0  0  0
   -1.7694    0.1374   -0.8638 C   0  0  2  0  0  0  0  0  0  0  0  0
   -1.0463   -0.2039    0.3888 C   0  0  0  0  0  0  0  0  0  0  0  0
   -1.5859   -0.5059    1.4437 O   0  0  0  0  0  0  0  0  0  0  0  0
    0.2983   -0.1260    0.2002 O   0  0  0  0  0  0  0  0  0  0  0  0
    1.0356   -0.4407    1.3796 C   0  0  0  0  0  0  0  0  0  0  0  0
    2.4338   -0.3665    1.0565 N   0  0  0  0  0  0  0  0  0  0  0  0
    3.1819    0.7630    1.1421 C   0  0  0  0  0  0  0  0  0  0  0  0
    2.8557    1.8725    1.5210 O   0  0  0  0  0  0  0  0  0  0  0  0
    4.5251    0.4055    0.6789 C   0  0  0  0  0  0  0  0  0  0  0  0
    4.5154   -0.8872    0.3449 C   0  0  0  0  0  0  0  0  0  0  0  0
    5.6741   -1.6355   -0.1957 C   0  0  0  0  0  0  0  0  0  0  0  0
    6.7876   -0.6664   -0.6347 C   0  0  0  0  0  0  0  0  0  0  0  0
    6.9908    0.4849    0.3657 C   0  0  0  0  0  0  0  0  0  0  0  0
    5.7045    1.2988    0.5981 C   0  0  0  0  0  0  0  0  0  0  0  0
    3.1640   -1.4040    0.5737 C   0  0  0  0  0  0  0  0  0  0  0  0
    2.8183   -2.5508    0.3585 O   0  0  0  0  0  0  0  0  0  0  0  0
   -2.8666    1.1932   -0.9101 C   0  0  0  0  0  0  0  0  0  0  0  0
   -3.3332    1.8535    0.3675 C   0  0  0  0  0  0  0  0  0  0  0  0
   -2.8607    2.1392   -2.0877 C   0  0  0  0  0  0  0  0  0  0  0  0
  1  2  1  0
  2  3  1  0
  2  4  2  3
  5  4  1  1
  5  6  1  0
  6  7  1  1
  7  8  2  0
  7  9  1  0
  9 10  1  0
 10 11  1  0
 11 12  1  0
 12 13  2  0
 12 14  1  0
 14 15  2  0
 15 16  1  0
 16 17  1  0
 17 18  1  0
 18 19  1  0
 15 20  1  0
 20 21  2  0
  6 22  1  0
 22 23  1  0
 22 24  1  0
 22  5  1  0
 20 11  1  0
 19 14  1  0
M  END
