
     RDKit          3D

 21 21  0  0  0  0  0  0  0  0999 V2000
   -0.4339    4.5181    1.3178 C   0  0  0  0  0  0  0  0  0  0  0  0
    0.1044    3.3767    0.4802 C   0  0  0  0  0  0  0  0  0  0  0  0
   -0.5967    2.1888    0.8206 O   0  0  0  0  0  0  0  0  0  0  0  0
   -1.2223    1.2681   -0.3600 P   0  0  2  0  0  5  0  0  0  0  0  0
   -2.6229    2.1718   -1.3559 S   0  0  0  0  0  0  0  0  0  0  0  0
   -1.6701   -0.0936    0.4603 N   0  0  0  0  0  0  0  0  0  0  0  0
   -2.3885   -1.1938   -0.1938 C   0  0  1  0  0  0  0  0  0  0  0  0
   -1.5479   -1.8265   -1.3031 C   0  0  0  0  0  0  0  0  0  0  0  0
   -2.7609   -2.2217    0.8949 C   0  0  0  0  0  0  0  0  0  0  0  0
   -3.6261   -3.3676    0.3869 C   0  0  0  0  0  0  0  0  0  0  0  0
    0.0856    0.9058   -1.2352 O   0  0  0  0  0  0  0  0  0  0  0  0
    1.2779    0.3729   -0.8317 C   0  0  0  0  0  0  0  0  0  0  0  0
    1.5288   -0.0719    0.4673 C   0  0  0  0  0  0  0  0  0  0  0  0
    2.7631   -0.6561    0.8070 C   0  0  0  0  0  0  0  0  0  0  0  0
    3.0187   -1.1024    2.2187 C   0  0  0  0  0  0  0  0  0  0  0  0
    3.7670   -0.7738   -0.1624 C   0  0  0  0  0  0  0  0  0  0  0  0
    3.5389   -0.3295   -1.4623 C   0  0  0  0  0  0  0  0  0  0  0  0
    2.3002    0.2421   -1.7785 C   0  0  0  0  0  0  0  0  0  0  0  0
    2.1072    0.7271   -3.1324 N   0  0  0  0  0  4  0  0  0  0  0  0
    1.7957    1.9179   -3.2721 O   0  0  0  0  0  0  0  0  0  0  0  0
    2.3107   -0.0778   -4.0519 O   0  0  0  0  0  1  0  0  0  0  0  0
  1  2  1  0
  2  3  1  0
  3  4  1  0
  4  5  2  0
  4  6  1  1
  6  7  1  0
  7  8  1  6
  7  9  1  0
  9 10  1  0
  4 11  1  0
 11 12  1  0
 12 13  2  0
 13 14  1  0
 14 15  1  0
 14 16  2  0
 16 17  1  0
 17 18  2  0
 18 19  1  0
 19 20  2  0
 19 21  1  0
 18 12  1  0
M  CHG  2  19   1  21  -1
M  END
