
     RDKit          3D

 20 21  0  0  0  0  0  0  0  0999 V2000
   -2.7621   -1.0400   -1.1216 C   0  0  0  0  0  0  0  0  0  0  0  0
   -2.6208   -0.4656    0.3019 C   0  0  0  0  0  0  0  0  0  0  0  0
   -4.0207    0.0086    0.7590 C   0  0  0  0  0  0  0  0  0  0  0  0
   -2.1807   -1.5935    1.2476 C   0  0  0  0  0  0  0  0  0  0  0  0
   -1.6442    0.7583    0.3099 C   0  0  1  0  0  0  0  0  0  0  0  0
   -1.6645    1.3780    1.6032 O   0  0  0  0  0  0  0  0  0  0  0  0
   -0.1730    0.4861   -0.1190 C   0  0  2  0  0  0  0  0  0  0  0  0
    0.7628    0.0698    1.0369 C   0  0  0  0  0  0  0  0  0  0  0  0
    2.0582   -0.5385    0.5392 C   0  0  0  0  0  0  0  0  0  0  0  0
    2.1178   -1.8961    0.1930 C   0  0  0  0  0  0  0  0  0  0  0  0
    3.3055   -2.4496   -0.2901 C   0  0  0  0  0  0  0  0  0  0  0  0
    4.4367   -1.6487   -0.4315 C   0  0  0  0  0  0  0  0  0  0  0  0
    5.8975   -2.3319   -1.0306 Cl  0  0  0  0  0  0  0  0  0  0  0  0
    4.3912   -0.2988   -0.0922 C   0  0  0  0  0  0  0  0  0  0  0  0
    3.2049    0.2552    0.3933 C   0  0  0  0  0  0  0  0  0  0  0  0
    0.3595    1.6951   -0.7605 N   0  0  0  0  0  0  0  0  0  0  0  0
    0.9244    1.8067   -1.9927 C   0  0  0  0  0  0  0  0  0  0  0  0
    1.2548    3.0587   -2.2095 N   0  0  0  0  0  0  0  0  0  0  0  0
    0.8691    3.6855   -1.0594 C   0  0  0  0  0  0  0  0  0  0  0  0
    0.3122    2.8934   -0.1381 N   0  0  0  0  0  0  0  0  0  0  0  0
  1  2  1  0
  2  3  1  0
  2  4  1  0
  2  5  1  0
  5  6  1  1
  5  7  1  0
  7  8  1  1
  8  9  1  0
  9 10  2  0
 10 11  1  0
 11 12  2  0
 12 13  1  0
 12 14  1  0
 14 15  2  0
  7 16  1  0
 16 17  1  0
 17 18  2  0
 18 19  1  0
 19 20  2  0
 15  9  1  0
 20 16  1  0
M  END
