
     RDKit          3D

 24 25  0  0  0  0  0  0  0  0999 V2000
   -2.7575    4.1579   -2.0949 C   0  0  0  0  0  0  0  0  0  0  0  0
   -2.3363    3.4240   -0.9440 O   0  0  0  0  0  0  0  0  0  0  0  0
   -2.0813    2.1029   -1.1885 C   0  0  0  0  0  0  0  0  0  0  0  0
   -2.2383    1.5518   -2.2721 O   0  0  0  0  0  0  0  0  0  0  0  0
   -1.6479    1.4101    0.1153 C   0  0  1  0  0  0  0  0  0  0  0  0
   -2.9381    1.0781    0.8777 C   0  0  0  0  0  0  0  0  0  0  0  0
   -0.7628    0.2696   -0.2177 N   0  0  0  0  0  0  0  0  0  0  0  0
    0.4877    0.5919   -0.7690 C   0  0  0  0  0  0  0  0  0  0  0  0
    0.7878    1.7646   -1.0182 O   0  0  0  0  0  0  0  0  0  0  0  0
    1.4403   -0.5520   -1.1280 C   0  0  0  0  0  0  0  0  0  0  0  0
    2.8470   -0.3452   -0.6138 C   0  0  0  0  0  0  0  0  0  0  0  0
    3.2733   -0.9585    0.5725 C   0  0  0  0  0  0  0  0  0  0  0  0
    4.5719   -0.7582    1.0442 C   0  0  0  0  0  0  0  0  0  0  0  0
    5.4578    0.0527    0.3337 C   0  0  0  0  0  0  0  0  0  0  0  0
    5.0435    0.6691   -0.8458 C   0  0  0  0  0  0  0  0  0  0  0  0
    3.7445    0.4734   -1.3161 C   0  0  0  0  0  0  0  0  0  0  0  0
   -0.9623   -0.9618    0.4591 C   0  0  0  0  0  0  0  0  0  0  0  0
   -0.4844   -1.1516    1.7746 C   0  0  0  0  0  0  0  0  0  0  0  0
    0.2040   -0.0681    2.5597 C   0  0  0  0  0  0  0  0  0  0  0  0
   -0.7197   -2.3822    2.4054 C   0  0  0  0  0  0  0  0  0  0  0  0
   -1.3921   -3.4069    1.7420 C   0  0  0  0  0  0  0  0  0  0  0  0
   -1.8490   -3.2167    0.4407 C   0  0  0  0  0  0  0  0  0  0  0  0
   -1.6426   -1.9977   -0.2169 C   0  0  0  0  0  0  0  0  0  0  0  0
   -2.1612   -1.8224   -1.6187 C   0  0  0  0  0  0  0  0  0  0  0  0
  1  2  1  0
  2  3  1  0
  3  4  2  0
  3  5  1  0
  5  6  1  6
  5  7  1  0
  7  8  1  0
  8  9  2  0
  8 10  1  0
 10 11  1  0
 11 12  2  0
 12 13  1  0
 13 14  2  0
 14 15  1  0
 15 16  2  0
  7 17  1  0
 17 18  2  0
 18 19  1  0
 18 20  1  0
 20 21  2  0
 21 22  1  0
 22 23  2  0
 23 24  1  0
 16 11  1  0
 23 17  1  0
M  END
