
     RDKit          3D

 21 21  0  0  0  0  0  0  0  0999 V2000
   -3.3442    4.1259    0.3137 C   0  0  0  0  0  0  0  0  0  0  0  0
   -3.1569    2.6209    0.4011 C   0  0  0  0  0  0  0  0  0  0  0  0
   -1.7437    2.2541    0.8303 C   0  0  0  0  0  0  0  0  0  0  0  0
   -1.6360    0.9029    1.2383 O   0  0  0  0  0  0  0  0  0  0  0  0
   -1.6319   -0.3432    0.2026 P   0  0  0  0  0  5  0  0  0  0  0  0
   -0.9627   -1.9808    1.0367 S   0  0  0  0  0  0  0  0  0  0  0  0
   -3.2354   -0.4499   -0.1020 O   0  0  0  0  0  0  0  0  0  0  0  0
   -4.1376   -0.7728    0.9471 C   0  0  0  0  0  0  0  0  0  0  0  0
   -5.5667   -0.6380    0.4260 C   0  0  0  0  0  0  0  0  0  0  0  0
   -5.8727   -1.6444   -0.6789 C   0  0  0  0  0  0  0  0  0  0  0  0
   -0.8184    0.2042   -1.6723 S   0  0  0  0  0  0  0  0  0  0  0  0
    0.8959   -0.3862   -1.6203 C   0  0  0  0  0  0  0  0  0  0  0  0
    1.6921    0.1980   -0.4518 C   0  0  0  0  0  0  0  0  0  0  0  0
    1.2055    1.0416    0.3069 O   0  0  0  0  0  0  0  0  0  0  0  0
    3.0267   -0.2144   -0.3323 N   0  0  0  0  0  0  0  0  0  0  0  0
    3.8010    0.3668    0.7736 C   0  0  0  0  0  0  0  0  0  0  0  0
    5.2911    0.4476    0.4657 C   0  0  0  0  0  0  0  0  0  0  0  0
    5.8433   -0.8926   -0.0028 C   0  0  0  0  0  0  0  0  0  0  0  0
    5.0418   -1.3930   -1.2036 C   0  0  0  0  0  0  0  0  0  0  0  0
    3.5342   -1.4799   -0.9054 C   0  0  1  0  0  0  0  0  0  0  0  0
    3.2014   -2.6758    0.0013 C   0  0  0  0  0  0  0  0  0  0  0  0
  1  2  1  0
  2  3  1  0
  3  4  1  0
  4  5  1  0
  5  6  2  0
  5  7  1  0
  7  8  1  0
  8  9  1  0
  9 10  1  0
  5 11  1  0
 11 12  1  0
 12 13  1  0
 13 14  2  0
 13 15  1  0
 15 16  1  0
 16 17  1  0
 17 18  1  0
 18 19  1  0
 19 20  1  0
 20 21  1  1
 20 15  1  0
M  END
