
     RDKit          3D

 30 32  0  0  0  0  0  0  0  0999 V2000
   -3.7614   -2.6887    1.5747 C   0  0  0  0  0  0  0  0  0  0  0  0
   -3.9129   -1.1874    1.2866 C   0  0  0  0  0  0  0  0  0  0  0  0
   -5.1117   -0.6593    2.0868 C   0  0  0  0  0  0  0  0  0  0  0  0
   -2.6107   -0.4096    1.6294 C   0  0  1  0  0  0  0  0  0  0  0  0
   -1.3980   -1.0089    0.9197 C   0  0  0  0  0  0  0  0  0  0  0  0
   -0.4677   -1.5521    1.5021 O   0  0  0  0  0  0  0  0  0  0  0  0
   -1.4835   -0.8548   -0.4280 O   0  0  0  0  0  0  0  0  0  0  0  0
   -0.2972   -1.2185   -1.1605 C   0  0  1  0  0  0  0  0  0  0  0  0
   -0.6800   -1.6088   -2.5364 C   0  0  0  0  0  0  0  0  0  0  0  0
   -0.9955   -1.9248   -3.6097 N   0  0  0  0  0  0  0  0  0  0  0  0
    0.6579   -0.0350   -1.1624 C   0  0  0  0  0  0  0  0  0  0  0  0
    0.2273    1.2489   -1.5439 C   0  0  0  0  0  0  0  0  0  0  0  0
    1.1057    2.3334   -1.5170 C   0  0  0  0  0  0  0  0  0  0  0  0
    2.4289    2.1485   -1.1219 C   0  0  0  0  0  0  0  0  0  0  0  0
    2.8760    0.8775   -0.7657 C   0  0  0  0  0  0  0  0  0  0  0  0
    4.1859    0.7685   -0.3555 O   0  0  0  0  0  0  0  0  0  0  0  0
    4.9144   -0.2865   -0.8567 C   0  0  0  0  0  0  0  0  0  0  0  0
    5.6662   -1.0297    0.0535 C   0  0  0  0  0  0  0  0  0  0  0  0
    6.4472   -2.0943   -0.3970 C   0  0  0  0  0  0  0  0  0  0  0  0
    6.4871   -2.4033   -1.7573 C   0  0  0  0  0  0  0  0  0  0  0  0
    5.7529   -1.6443   -2.6696 C   0  0  0  0  0  0  0  0  0  0  0  0
    4.9710   -0.5787   -2.2220 C   0  0  0  0  0  0  0  0  0  0  0  0
    1.9932   -0.2073   -0.7635 C   0  0  0  0  0  0  0  0  0  0  0  0
   -2.6474    1.0992    1.3882 C   0  0  0  0  0  0  0  0  0  0  0  0
   -3.2738    1.6677    0.2668 C   0  0  0  0  0  0  0  0  0  0  0  0
   -3.2392    3.0485    0.0536 C   0  0  0  0  0  0  0  0  0  0  0  0
   -2.5695    3.8729    0.9531 C   0  0  0  0  0  0  0  0  0  0  0  0
   -2.5173    5.5705    0.6815 Cl  0  0  0  0  0  0  0  0  0  0  0  0
   -1.9347    3.3292    2.0656 C   0  0  0  0  0  0  0  0  0  0  0  0
   -1.9709    1.9492    2.2805 C   0  0  0  0  0  0  0  0  0  0  0  0
  1  2  1  0
  2  3  1  0
  4  2  1  6
  4  5  1  0
  5  6  2  0
  5  7  1  0
  7  8  1  0
  8  9  1  6
  9 10  3  0
  8 11  1  0
 11 12  2  0
 12 13  1  0
 13 14  2  0
 14 15  1  0
 15 16  1  0
 16 17  1  0
 17 18  2  0
 18 19  1  0
 19 20  2  0
 20 21  1  0
 21 22  2  0
 15 23  2  0
  4 24  1  0
 24 25  2  0
 25 26  1  0
 26 27  2  0
 27 28  1  0
 27 29  1  0
 29 30  2  0
 23 11  1  0
 30 24  1  0
 22 17  1  0
M  END
