
     RDKit          3D

 24 25  0  0  0  0  0  0  0  0999 V2000
   -1.7707    2.7034   -1.7203 C   0  0  0  0  0  0  0  0  0  0  0  0
   -1.3708    1.6645   -0.8248 O   0  0  0  0  0  0  0  0  0  0  0  0
   -1.8638    1.7891    0.4358 C   0  0  0  0  0  0  0  0  0  0  0  0
   -2.5740    2.7188    0.8058 O   0  0  0  0  0  0  0  0  0  0  0  0
   -1.4304    0.6421    1.3643 C   0  0  2  0  0  0  0  0  0  0  0  0
   -0.8993    1.2185    2.6810 C   0  0  0  0  0  0  0  0  0  0  0  0
   -0.5468   -0.3992    0.7607 N   0  0  0  0  0  0  0  0  0  0  0  0
    0.8253   -0.3030    0.5025 C   0  0  0  0  0  0  0  0  0  0  0  0
    1.5012   -1.2883    0.1869 O   0  0  0  0  0  0  0  0  0  0  0  0
    1.4964    1.0570    0.6594 C   0  0  0  0  0  0  0  0  0  0  0  0
    2.6271    1.2933   -0.3173 C   0  0  0  0  0  0  0  0  0  0  0  0
    2.3585    1.7512   -1.6152 C   0  0  0  0  0  0  0  0  0  0  0  0
    3.3998    1.9674   -2.5188 C   0  0  0  0  0  0  0  0  0  0  0  0
    4.7174    1.7225   -2.1369 C   0  0  0  0  0  0  0  0  0  0  0  0
    4.9945    1.2562   -0.8533 C   0  0  0  0  0  0  0  0  0  0  0  0
    3.9548    1.0397    0.0524 C   0  0  0  0  0  0  0  0  0  0  0  0
   -1.1881   -1.6525    0.4678 C   0  0  0  0  0  0  0  0  0  0  0  0
   -1.5853   -2.5107    1.5216 C   0  0  0  0  0  0  0  0  0  0  0  0
   -1.2685   -2.2317    2.9647 C   0  0  0  0  0  0  0  0  0  0  0  0
   -2.2862   -3.6911    1.2237 C   0  0  0  0  0  0  0  0  0  0  0  0
   -2.5629   -4.0424   -0.0924 C   0  0  0  0  0  0  0  0  0  0  0  0
   -2.1360   -3.2216   -1.1305 C   0  0  0  0  0  0  0  0  0  0  0  0
   -1.4347   -2.0301   -0.8730 C   0  0  0  0  0  0  0  0  0  0  0  0
   -1.0623   -1.1871   -2.0624 C   0  0  0  0  0  0  0  0  0  0  0  0
  1  2  1  0
  2  3  1  0
  3  4  2  0
  3  5  1  0
  5  6  1  1
  5  7  1  0
  7  8  1  0
  8  9  2  0
  8 10  1  0
 10 11  1  0
 11 12  2  0
 12 13  1  0
 13 14  2  0
 14 15  1  0
 15 16  2  0
  7 17  1  0
 17 18  2  0
 18 19  1  0
 18 20  1  0
 20 21  2  0
 21 22  1  0
 22 23  2  0
 23 24  1  0
 16 11  1  0
 23 17  1  0
M  END
