
     RDKit          3D

 20 21  0  0  0  0  0  0  0  0999 V2000
   -1.6542   -2.3169    1.1111 C   0  0  0  0  0  0  0  0  0  0  0  0
   -1.5334   -0.9778    0.3455 C   0  0  0  0  0  0  0  0  0  0  0  0
   -1.2009   -1.3078   -1.1220 C   0  0  0  0  0  0  0  0  0  0  0  0
   -2.9161   -0.3067    0.3841 C   0  0  0  0  0  0  0  0  0  0  0  0
   -0.3932   -0.1123    0.9979 C   0  0  2  0  0  0  0  0  0  0  0  0
   -0.6519    0.1257    2.3823 O   0  0  0  0  0  0  0  0  0  0  0  0
   -0.0201    1.2097    0.3236 C   0  0  0  0  0  0  0  0  0  0  0  0
    1.0715    1.3154   -0.4798 C   0  0  0  0  0  0  0  0  0  0  0  0
    2.0577    0.2804   -0.8035 C   0  0  0  0  0  0  0  0  0  0  0  0
    2.1059   -0.2505   -2.0972 C   0  0  0  0  0  0  0  0  0  0  0  0
    3.0513   -1.2265   -2.4225 C   0  0  0  0  0  0  0  0  0  0  0  0
    3.9571   -1.6619   -1.4570 C   0  0  0  0  0  0  0  0  0  0  0  0
    5.1195   -2.8653   -1.8566 Cl  0  0  0  0  0  0  0  0  0  0  0  0
    3.9303   -1.1256   -0.1710 C   0  0  0  0  0  0  0  0  0  0  0  0
    2.9843   -0.1502    0.1540 C   0  0  0  0  0  0  0  0  0  0  0  0
   -0.8048    2.3789    0.5451 N   0  0  0  0  0  0  0  0  0  0  0  0
   -1.8349    2.5934    1.4540 C   0  0  0  0  0  0  0  0  0  0  0  0
   -2.3462    3.7975    1.3487 N   0  0  0  0  0  0  0  0  0  0  0  0
   -1.5872    4.3499    0.3761 C   0  0  0  0  0  0  0  0  0  0  0  0
   -0.6446    3.5650   -0.1363 N   0  0  0  0  0  0  0  0  0  0  0  0
  1  2  1  0
  2  3  1  0
  2  4  1  0
  2  5  1  0
  5  6  1  1
  5  7  1  0
  7  8  2  0
  8  9  1  0
  9 10  2  0
 10 11  1  0
 11 12  2  0
 12 13  1  0
 12 14  1  0
 14 15  2  0
  7 16  1  0
 16 17  1  0
 17 18  2  0
 18 19  1  0
 19 20  2  0
 15  9  1  0
 20 16  1  0
M  END
