
     RDKit          3D

 24 25  0  0  0  0  0  0  0  0999 V2000
   -3.7403    1.4496    1.3921 C   0  0  0  0  0  0  0  0  0  0  0  0
   -3.6050    0.1048    0.6712 C   0  0  0  0  0  0  0  0  0  0  0  0
   -3.9643   -1.0282    1.6312 C   0  0  0  0  0  0  0  0  0  0  0  0
   -2.1837   -0.0273    0.0809 C   0  0  0  0  0  0  0  0  0  0  0  0
   -1.9642   -1.2945   -0.7801 C   0  0  2  0  0  0  0  0  0  0  0  0
   -1.2544   -2.4120   -0.0042 C   0  0  0  0  0  0  0  0  0  0  0  0
   -1.1964   -0.9747   -2.0574 C   0  0  0  0  0  0  0  0  0  0  0  0
   -1.9475   -1.3738   -3.5572 S   0  0  0  0  0  0  0  0  0  0  0  0
   -0.6268   -0.7918   -4.4552 C   0  0  0  0  0  0  0  0  0  0  0  0
    0.3689   -0.3009   -3.6435 C   0  0  0  0  0  0  0  0  0  0  0  0
    0.0547   -0.3966   -2.2522 C   0  0  0  0  0  0  0  0  0  0  0  0
    0.8535    0.0181   -1.1886 N   0  0  0  0  0  0  0  0  0  0  0  0
    2.0972    0.6118   -1.2873 C   0  0  0  0  0  0  0  0  0  0  0  0
    2.6843    0.8677   -2.3299 O   0  0  0  0  0  0  0  0  0  0  0  0
    2.7098    0.9427   -0.0011 C   0  0  0  0  0  0  0  0  0  0  0  0
    2.2652    0.6616    1.2803 C   0  0  0  0  0  0  0  0  0  0  0  0
    3.1950    1.1752    2.1346 N   0  0  0  0  0  0  0  0  0  0  0  0
    3.1727    1.1277    3.5778 C   0  0  0  0  0  0  0  0  0  0  0  0
    4.2175    1.7762    1.5148 N   0  0  0  0  0  0  0  0  0  0  0  0
    3.9448    1.6436    0.1987 C   0  0  0  0  0  0  0  0  0  0  0  0
    4.8567    2.1886   -0.8775 C   0  0  0  0  0  0  0  0  0  0  0  0
    5.3629    1.2064   -1.6698 F   0  0  0  0  0  0  0  0  0  0  0  0
    5.9343    2.8497   -0.3663 F   0  0  0  0  0  0  0  0  0  0  0  0
    4.2220    3.0808   -1.6842 F   0  0  0  0  0  0  0  0  0  0  0  0
  1  2  1  0
  2  3  1  0
  2  4  1  0
  4  5  1  0
  5  6  1  1
  5  7  1  0
  7  8  1  0
  8  9  1  0
  9 10  2  0
 10 11  1  0
 11 12  1  0
 12 13  1  0
 13 14  2  0
 13 15  1  0
 15 16  2  0
 16 17  1  0
 17 18  1  0
 17 19  1  0
 19 20  2  0
 20 21  1  0
 21 22  1  0
 21 23  1  0
 21 24  1  0
 11  7  2  0
 20 15  1  0
M  END
