
     RDKit          3D

 24 26  0  0  0  0  0  0  0  0999 V2000
   -4.7935    2.3957    1.0608 C   0  0  0  0  0  0  0  0  0  0  0  0
   -3.7844    2.1618    2.1496 C   0  0  0  0  0  0  0  0  0  0  0  0
   -3.4444    3.3726    2.9740 C   0  0  0  0  0  0  0  0  0  0  0  0
   -3.2046    0.9702    2.3911 C   0  0  0  0  0  0  0  0  0  0  0  0
   -3.4260   -0.2900    1.6608 C   0  0  2  0  0  0  0  0  0  0  0  0
   -2.3271   -1.3205    1.4976 C   0  0  2  0  0  0  0  0  0  0  0  0
   -0.9869   -1.1698    2.1086 C   0  0  0  0  0  0  0  0  0  0  0  0
   -0.8259   -1.1239    3.3190 O   0  0  0  0  0  0  0  0  0  0  0  0
    0.0003   -1.1891    1.1783 O   0  0  0  0  0  0  0  0  0  0  0  0
    1.3000   -1.1006    1.7559 C   0  0  0  0  0  0  0  0  0  0  0  0
    2.2474   -0.9758    0.6827 N   0  0  0  0  0  0  0  0  0  0  0  0
    2.7765   -2.0257    0.0018 C   0  0  0  0  0  0  0  0  0  0  0  0
    2.6004   -3.2215    0.1672 O   0  0  0  0  0  0  0  0  0  0  0  0
    3.6430   -1.4520   -1.0332 C   0  0  0  0  0  0  0  0  0  0  0  0
    3.5705   -0.1213   -0.9425 C   0  0  0  0  0  0  0  0  0  0  0  0
    4.3018    0.8319   -1.8113 C   0  0  0  0  0  0  0  0  0  0  0  0
    5.3961    0.1040   -2.6161 C   0  0  0  0  0  0  0  0  0  0  0  0
    4.9244   -1.2560   -3.1564 C   0  0  0  0  0  0  0  0  0  0  0  0
    4.4396   -2.1972   -2.0365 C   0  0  0  0  0  0  0  0  0  0  0  0
    2.6616    0.2086    0.1601 C   0  0  0  0  0  0  0  0  0  0  0  0
    2.3688    1.3426    0.4957 O   0  0  0  0  0  0  0  0  0  0  0  0
   -2.7981   -0.5185    0.2927 C   0  0  0  0  0  0  0  0  0  0  0  0
   -1.8975    0.5324   -0.3186 C   0  0  0  0  0  0  0  0  0  0  0  0
   -3.6249   -1.2570   -0.7352 C   0  0  0  0  0  0  0  0  0  0  0  0
  1  2  1  0
  2  3  1  0
  2  4  2  3
  5  4  1  1
  5  6  1  0
  6  7  1  1
  7  8  2  0
  7  9  1  0
  9 10  1  0
 10 11  1  0
 11 12  1  0
 12 13  2  0
 12 14  1  0
 14 15  2  0
 15 16  1  0
 16 17  1  0
 17 18  1  0
 18 19  1  0
 15 20  1  0
 20 21  2  0
  6 22  1  0
 22 23  1  0
 22 24  1  0
 22  5  1  0
 20 11  1  0
 19 14  1  0
M  END
