
     RDKit          3D

 21 21  0  0  0  0  0  0  0  0999 V2000
   -3.2072    2.7476    2.6719 C   0  0  0  0  0  0  0  0  0  0  0  0
   -4.3784    2.7500    1.6998 C   0  0  0  0  0  0  0  0  0  0  0  0
   -3.9356    2.6160    0.2479 C   0  0  0  0  0  0  0  0  0  0  0  0
   -3.3005    1.3626    0.0523 O   0  0  0  0  0  0  0  0  0  0  0  0
   -2.0131    1.2719   -0.9359 P   0  0  0  0  0  5  0  0  0  0  0  0
   -2.4081    1.7998   -2.7734 S   0  0  0  0  0  0  0  0  0  0  0  0
   -1.6913   -0.3207   -0.8076 O   0  0  0  0  0  0  0  0  0  0  0  0
   -2.7024   -1.2619   -1.1403 C   0  0  0  0  0  0  0  0  0  0  0  0
   -2.2681   -2.6335   -0.6383 C   0  0  0  0  0  0  0  0  0  0  0  0
   -3.3126   -3.7046   -0.9167 C   0  0  0  0  0  0  0  0  0  0  0  0
   -0.4151    2.2002    0.0634 S   0  0  0  0  0  0  0  0  0  0  0  0
    0.9884    1.8727   -1.0291 C   0  0  0  0  0  0  0  0  0  0  0  0
    2.2572    1.6239   -0.2262 C   0  0  0  0  0  0  0  0  0  0  0  0
    2.8320    2.5733    0.3032 O   0  0  0  0  0  0  0  0  0  0  0  0
    2.7469    0.3119   -0.1742 N   0  0  0  0  0  0  0  0  0  0  0  0
    1.8434   -0.8321   -0.3651 C   0  0  0  0  0  0  0  0  0  0  0  0
    2.2312   -2.0451    0.4694 C   0  0  0  0  0  0  0  0  0  0  0  0
    3.6393   -2.5146    0.1339 C   0  0  0  0  0  0  0  0  0  0  0  0
    4.5930   -1.3541   -0.1363 C   0  0  0  0  0  0  0  0  0  0  0  0
    4.0928    0.0128    0.3821 C   0  0  1  0  0  0  0  0  0  0  0  0
    5.1799    1.0369    0.0268 C   0  0  0  0  0  0  0  0  0  0  0  0
  1  2  1  0
  2  3  1  0
  3  4  1  0
  4  5  1  0
  5  6  2  0
  5  7  1  0
  7  8  1  0
  8  9  1  0
  9 10  1  0
  5 11  1  0
 11 12  1  0
 12 13  1  0
 13 14  2  0
 13 15  1  0
 15 16  1  0
 16 17  1  0
 17 18  1  0
 18 19  1  0
 19 20  1  0
 20 21  1  6
 20 15  1  0
M  END
