
     RDKit          3D

 20 21  0  0  0  0  0  0  0  0999 V2000
   -2.2085    1.8355   -0.5698 C   0  0  0  0  0  0  0  0  0  0  0  0
   -2.5515    0.5997    0.2772 C   0  0  0  0  0  0  0  0  0  0  0  0
   -2.3769    0.9538    1.7684 C   0  0  0  0  0  0  0  0  0  0  0  0
   -4.0467    0.2770    0.0499 C   0  0  0  0  0  0  0  0  0  0  0  0
   -1.6785   -0.6480   -0.0969 C   0  0  1  0  0  0  0  0  0  0  0  0
   -1.9683   -1.0817   -1.4341 O   0  0  0  0  0  0  0  0  0  0  0  0
   -0.1377   -0.4738    0.0486 C   0  0  2  0  0  0  0  0  0  0  0  0
    0.5776   -0.0245   -1.2464 C   0  0  0  0  0  0  0  0  0  0  0  0
    1.9902    0.4658   -1.0045 C   0  0  0  0  0  0  0  0  0  0  0  0
    3.0851   -0.3906   -1.1883 C   0  0  0  0  0  0  0  0  0  0  0  0
    4.3847    0.0601   -0.9456 C   0  0  0  0  0  0  0  0  0  0  0  0
    4.5958    1.3686   -0.5184 C   0  0  0  0  0  0  0  0  0  0  0  0
    6.1969    1.9242   -0.2211 Cl  0  0  0  0  0  0  0  0  0  0  0  0
    3.5182    2.2307   -0.3308 C   0  0  0  0  0  0  0  0  0  0  0  0
    2.2183    1.7805   -0.5718 C   0  0  0  0  0  0  0  0  0  0  0  0
    0.4291   -1.7320    0.5452 N   0  0  0  0  0  0  0  0  0  0  0  0
    0.5234   -2.9307   -0.0955 C   0  0  0  0  0  0  0  0  0  0  0  0
    1.0591   -3.8189    0.7091 N   0  0  0  0  0  0  0  0  0  0  0  0
    1.2568   -3.1095    1.8592 C   0  0  0  0  0  0  0  0  0  0  0  0
    0.8633   -1.8341    1.8173 N   0  0  0  0  0  0  0  0  0  0  0  0
  1  2  1  0
  2  3  1  0
  2  4  1  0
  2  5  1  0
  5  6  1  6
  5  7  1  0
  7  8  1  6
  8  9  1  0
  9 10  2  0
 10 11  1  0
 11 12  2  0
 12 13  1  0
 12 14  1  0
 14 15  2  0
  7 16  1  0
 16 17  1  0
 17 18  2  0
 18 19  1  0
 19 20  2  0
 15  9  1  0
 20 16  1  0
M  END
