
     RDKit          3D

 24 25  0  0  0  0  0  0  0  0999 V2000
   -6.6354    3.0257   -1.1045 C   0  0  0  0  0  0  0  0  0  0  0  0
   -6.0289    2.0958   -1.5631 C   0  0  0  0  0  0  0  0  0  0  0  0
   -5.2865    0.9582   -2.1192 C   0  0  0  0  0  0  0  0  0  0  0  0
   -4.0815    0.7535   -1.3738 O   0  0  0  0  0  0  0  0  0  0  0  0
   -4.1522   -0.1684   -0.3761 C   0  0  0  0  0  0  0  0  0  0  0  0
   -5.1512   -0.8192   -0.0886 O   0  0  0  0  0  0  0  0  0  0  0  0
   -2.8384   -0.2657    0.4012 C   0  0  2  0  0  0  0  0  0  0  0  0
   -2.8722    0.7746    1.5148 C   0  0  0  0  0  0  0  0  0  0  0  0
   -1.7343   -0.0278   -0.4716 O   0  0  0  0  0  0  0  0  0  0  0  0
   -0.5177   -0.5751   -0.1800 C   0  0  0  0  0  0  0  0  0  0  0  0
   -0.1836   -1.2969    0.9663 C   0  0  0  0  0  0  0  0  0  0  0  0
    1.1132   -1.7970    1.1287 C   0  0  0  0  0  0  0  0  0  0  0  0
    2.0829   -1.5604    0.1556 C   0  0  0  0  0  0  0  0  0  0  0  0
    3.3313   -2.0997    0.3629 O   0  0  0  0  0  0  0  0  0  0  0  0
    4.3762   -1.2095    0.2258 C   0  0  0  0  0  0  0  0  0  0  0  0
    5.1284   -1.3369   -0.8955 N   0  0  0  0  0  0  0  0  0  0  0  0
    6.1807   -0.4891   -1.0075 C   0  0  0  0  0  0  0  0  0  0  0  0
    6.5153    0.4631   -0.0508 C   0  0  0  0  0  0  0  0  0  0  0  0
    7.8670    1.4962   -0.2761 Cl  0  0  0  0  0  0  0  0  0  0  0  0
    5.7378    0.5601    1.0971 C   0  0  0  0  0  0  0  0  0  0  0  0
    4.6541   -0.2961    1.2392 C   0  0  0  0  0  0  0  0  0  0  0  0
    3.9050   -0.2342    2.3489 F   0  0  0  0  0  0  0  0  0  0  0  0
    1.7533   -0.8560   -1.0013 C   0  0  0  0  0  0  0  0  0  0  0  0
    0.4577   -0.3598   -1.1595 C   0  0  0  0  0  0  0  0  0  0  0  0
  1  2  3  0
  2  3  1  0
  3  4  1  0
  4  5  1  0
  5  6  2  0
  5  7  1  0
  7  8  1  1
  7  9  1  0
  9 10  1  0
 10 11  2  0
 11 12  1  0
 12 13  2  0
 13 14  1  0
 14 15  1  0
 15 16  2  0
 16 17  1  0
 17 18  2  0
 18 19  1  0
 18 20  1  0
 20 21  2  0
 21 22  1  0
 13 23  1  0
 23 24  2  0
 24 10  1  0
 21 15  1  0
M  END
