
     RDKit          3D

 19 20  0  0  0  0  0  0  0  0999 V2000
   -1.4879   -1.4250    2.2033 O   0  0  0  0  0  0  0  0  0  0  0  0
   -1.6546   -0.7493    1.1990 C   0  0  0  0  0  0  0  0  0  0  0  0
   -2.9931   -0.1793    0.7588 C   0  0  2  0  0  0  0  0  0  0  0  0
   -4.3054   -1.3498    0.9709 Cl  0  0  0  0  0  0  0  0  0  0  0  0
   -2.7603    0.1346   -0.7143 C   0  0  1  0  0  0  0  0  0  0  0  0
   -3.7244    1.1383   -1.3316 C   0  0  0  0  0  0  0  0  0  0  0  0
   -3.7036    2.7309   -0.5403 Cl  0  0  0  0  0  0  0  0  0  0  0  0
   -1.2972    0.5493   -0.7291 C   0  0  0  0  0  0  0  0  0  0  0  0
   -0.6852   -0.2885    0.2807 N   0  0  0  0  0  0  0  0  0  0  0  0
    0.7213   -0.4875    0.3666 C   0  0  0  0  0  0  0  0  0  0  0  0
    1.2882   -1.3768    1.2870 C   0  0  0  0  0  0  0  0  0  0  0  0
    2.6724   -1.5696    1.3571 C   0  0  0  0  0  0  0  0  0  0  0  0
    3.5224   -0.8722    0.5056 C   0  0  0  0  0  0  0  0  0  0  0  0
    2.9935    0.0312   -0.4212 C   0  0  0  0  0  0  0  0  0  0  0  0
    3.8967    0.7835   -1.3664 C   0  0  0  0  0  0  0  0  0  0  0  0
    3.4506    2.0437   -1.6316 F   0  0  0  0  0  0  0  0  0  0  0  0
    5.1680    0.9294   -0.9014 F   0  0  0  0  0  0  0  0  0  0  0  0
    4.0061    0.1666   -2.5750 F   0  0  0  0  0  0  0  0  0  0  0  0
    1.5964    0.2072   -0.4857 C   0  0  0  0  0  0  0  0  0  0  0  0
  1  2  2  0
  2  3  1  0
  3  4  1  6
  3  5  1  0
  5  6  1  1
  6  7  1  0
  5  8  1  0
  8  9  1  0
  9 10  1  0
 10 11  2  0
 11 12  1  0
 12 13  2  0
 13 14  1  0
 14 15  1  0
 15 16  1  0
 15 17  1  0
 15 18  1  0
 14 19  2  0
  9  2  1  0
 19 10  1  0
M  END
