
     RDKit          3D

 25 27  0  0  0  0  0  0  0  0999 V2000
   -3.9613    1.8725   -0.3842 C   0  0  0  0  0  0  0  0  0  0  0  0
   -4.2379    0.6653    0.5306 C   0  0  0  0  0  0  0  0  0  0  0  0
   -5.2164    1.1268    1.6391 C   0  0  0  0  0  0  0  0  0  0  0  0
   -4.9601   -0.4227   -0.2824 C   0  0  0  0  0  0  0  0  0  0  0  0
   -2.9244    0.1365    1.1968 C   0  0  2  0  0  0  0  0  0  0  0  0
   -2.4662    1.1514    2.1247 O   0  0  0  0  0  0  0  0  0  0  0  0
   -1.7259   -0.2399    0.2759 C   0  0  1  0  0  0  0  0  0  0  0  0
   -0.6294   -0.5460    1.1761 O   0  0  0  0  0  0  0  0  0  0  0  0
    0.6528   -0.3205    0.7614 C   0  0  0  0  0  0  0  0  0  0  0  0
    1.6099   -0.4087    1.7739 C   0  0  0  0  0  0  0  0  0  0  0  0
    2.9656   -0.2056    1.4966 C   0  0  0  0  0  0  0  0  0  0  0  0
    3.3989    0.0855    0.1956 C   0  0  0  0  0  0  0  0  0  0  0  0
    4.8242    0.3002   -0.1024 C   0  0  0  0  0  0  0  0  0  0  0  0
    5.2590    1.4626   -0.7611 C   0  0  0  0  0  0  0  0  0  0  0  0
    6.6123    1.6678   -1.0439 C   0  0  0  0  0  0  0  0  0  0  0  0
    7.5547    0.7121   -0.6732 C   0  0  0  0  0  0  0  0  0  0  0  0
    7.1454   -0.4476   -0.0202 C   0  0  0  0  0  0  0  0  0  0  0  0
    5.7919   -0.6507    0.2628 C   0  0  0  0  0  0  0  0  0  0  0  0
    2.4274    0.1600   -0.8143 C   0  0  0  0  0  0  0  0  0  0  0  0
    1.0683   -0.0437   -0.5381 C   0  0  0  0  0  0  0  0  0  0  0  0
   -1.9603   -1.4037   -0.5555 N   0  0  0  0  0  0  0  0  0  0  0  0
   -2.1198   -2.6972   -0.1593 C   0  0  0  0  0  0  0  0  0  0  0  0
   -2.2874   -3.4630   -1.2122 N   0  0  0  0  0  0  0  0  0  0  0  0
   -2.1835   -2.5849   -2.2520 C   0  0  0  0  0  0  0  0  0  0  0  0
   -1.9788   -1.3113   -1.9042 N   0  0  0  0  0  0  0  0  0  0  0  0
  1  2  1  0
  2  3  1  0
  2  4  1  0
  2  5  1  0
  5  6  1  1
  5  7  1  0
  7  8  1  1
  8  9  1  0
  9 10  2  0
 10 11  1  0
 11 12  2  0
 12 13  1  0
 13 14  2  0
 14 15  1  0
 15 16  2  0
 16 17  1  0
 17 18  2  0
 12 19  1  0
 19 20  2  0
  7 21  1  0
 21 22  1  0
 22 23  2  0
 23 24  1  0
 24 25  2  0
 20  9  1  0
 25 21  1  0
 18 13  1  0
M  END
