
     RDKit          3D

 20 21  0  0  0  0  0  0  0  0999 V2000
   -3.2878    1.6335   -1.0899 C   0  0  0  0  0  0  0  0  0  0  0  0
   -3.4871    0.2585   -0.4660 C   0  0  0  0  0  0  0  0  0  0  0  0
   -2.2063   -0.4011   -0.2052 N   0  0  0  0  0  0  0  0  0  0  0  0
   -1.6107   -0.1791    1.1149 C   0  0  0  0  0  0  0  0  0  0  0  0
   -2.1249   -1.1810    2.1382 C   0  0  0  0  0  0  0  0  0  0  0  0
   -1.6628   -1.2038   -1.2137 C   0  0  0  0  0  0  0  0  0  0  0  0
   -2.2772   -1.3960   -2.2707 O   0  0  0  0  0  0  0  0  0  0  0  0
   -0.2649   -1.8264   -0.9896 C   0  0  1  0  0  0  0  0  0  0  0  0
   -0.0747   -3.0328   -1.9095 C   0  0  0  0  0  0  0  0  0  0  0  0
    0.6964   -0.8285   -1.3610 O   0  0  0  0  0  0  0  0  0  0  0  0
    1.6761   -0.5588   -0.4378 C   0  0  0  0  0  0  0  0  0  0  0  0
    2.4180   -1.5775    0.1676 C   0  0  0  0  0  0  0  0  0  0  0  0
    3.4124   -1.2602    1.0895 C   0  0  0  0  0  0  0  0  0  0  0  0
    3.6766    0.0736    1.4012 C   0  0  0  0  0  0  0  0  0  0  0  0
    2.9596    1.1125    0.7865 C   0  0  0  0  0  0  0  0  0  0  0  0
    3.2309    2.4573    1.0945 C   0  0  0  0  0  0  0  0  0  0  0  0
    2.5192    3.4912    0.4839 C   0  0  0  0  0  0  0  0  0  0  0  0
    1.5288    3.1955   -0.4453 C   0  0  0  0  0  0  0  0  0  0  0  0
    1.2483    1.8656   -0.7629 C   0  0  0  0  0  0  0  0  0  0  0  0
    1.9507    0.8013   -0.1564 C   0  0  0  0  0  0  0  0  0  0  0  0
  1  2  1  0
  2  3  1  0
  3  4  1  0
  4  5  1  0
  3  6  1  0
  6  7  2  0
  6  8  1  0
  8  9  1  6
  8 10  1  0
 10 11  1  0
 11 12  2  0
 12 13  1  0
 13 14  2  0
 14 15  1  0
 15 16  2  0
 16 17  1  0
 17 18  2  0
 18 19  1  0
 19 20  2  0
 20 11  1  0
 20 15  1  0
M  END
