
     RDKit          3D

 20 21  0  0  0  0  0  0  0  0999 V2000
   -3.0762   -1.2994    2.4313 C   0  0  0  0  0  0  0  0  0  0  0  0
   -2.3375   -0.4478    1.3678 C   0  0  0  0  0  0  0  0  0  0  0  0
   -2.2477    0.9925    1.9092 C   0  0  0  0  0  0  0  0  0  0  0  0
   -3.2223   -0.4465    0.1083 C   0  0  0  0  0  0  0  0  0  0  0  0
   -0.9105   -1.0564    1.1029 C   0  0  2  0  0  0  0  0  0  0  0  0
   -0.2611   -1.2233    2.3804 O   0  0  0  0  0  0  0  0  0  0  0  0
    0.0697   -0.2464    0.1982 C   0  0  1  0  0  0  0  0  0  0  0  0
    1.5001   -0.8486    0.2300 C   0  0  0  0  0  0  0  0  0  0  0  0
    2.5448    0.0650   -0.3781 C   0  0  0  0  0  0  0  0  0  0  0  0
    2.9671   -0.1163   -1.7028 C   0  0  0  0  0  0  0  0  0  0  0  0
    3.9105    0.7447   -2.2675 C   0  0  0  0  0  0  0  0  0  0  0  0
    4.4376    1.7876   -1.5091 C   0  0  0  0  0  0  0  0  0  0  0  0
    5.6010    2.8484   -2.2037 Cl  0  0  0  0  0  0  0  0  0  0  0  0
    4.0281    1.9786   -0.1908 C   0  0  0  0  0  0  0  0  0  0  0  0
    3.0824    1.1200    0.3735 C   0  0  0  0  0  0  0  0  0  0  0  0
   -0.3787   -0.1355   -1.1801 N   0  0  0  0  0  0  0  0  0  0  0  0
   -0.4812    0.9976   -1.9290 C   0  0  0  0  0  0  0  0  0  0  0  0
   -0.8892    0.6881   -3.1380 N   0  0  0  0  0  0  0  0  0  0  0  0
   -0.9978   -0.6716   -3.0877 C   0  0  0  0  0  0  0  0  0  0  0  0
   -0.6894   -1.2255   -1.9115 N   0  0  0  0  0  0  0  0  0  0  0  0
  1  2  1  0
  2  3  1  0
  2  4  1  0
  2  5  1  0
  5  6  1  1
  5  7  1  0
  7  8  1  6
  8  9  1  0
  9 10  2  0
 10 11  1  0
 11 12  2  0
 12 13  1  0
 12 14  1  0
 14 15  2  0
  7 16  1  0
 16 17  1  0
 17 18  2  0
 18 19  1  0
 19 20  2  0
 15  9  1  0
 20 16  1  0
M  END
