
     RDKit          3D

 26 27  0  0  0  0  0  0  0  0999 V2000
   -3.7115    3.1010   -2.4186 N   0  0  0  0  0  0  0  0  0  0  0  0
   -2.9717    2.3156   -1.9893 C   0  0  0  0  0  0  0  0  0  0  0  0
   -2.1192    1.2808   -1.4838 C   0  0  0  0  0  0  0  0  0  0  0  0
   -0.8998    1.5900   -1.0316 N   0  0  0  0  0  0  0  0  0  0  0  0
   -0.3535    0.3963   -0.6678 N   0  0  0  0  0  0  0  0  0  0  0  0
    0.9596    0.3566   -0.1471 C   0  0  0  0  0  0  0  0  0  0  0  0
    1.9446   -0.4516   -0.7340 C   0  0  0  0  0  0  0  0  0  0  0  0
    1.6926   -1.3819   -2.1712 Cl  0  0  0  0  0  0  0  0  0  0  0  0
    3.2456   -0.4646   -0.2126 C   0  0  0  0  0  0  0  0  0  0  0  0
    3.5911    0.3356    0.8849 C   0  0  0  0  0  0  0  0  0  0  0  0
    4.9897    0.3002    1.4524 C   0  0  0  0  0  0  0  0  0  0  0  0
    5.1401   -0.6862    2.3762 F   0  0  0  0  0  0  0  0  0  0  0  0
    5.9387    0.0774    0.5031 F   0  0  0  0  0  0  0  0  0  0  0  0
    5.3431    1.4583    2.0723 F   0  0  0  0  0  0  0  0  0  0  0  0
    2.6029    1.1417    1.4645 C   0  0  0  0  0  0  0  0  0  0  0  0
    1.2979    1.1606    0.9543 C   0  0  0  0  0  0  0  0  0  0  0  0
    0.1514    2.1196    1.8293 Cl  0  0  0  0  0  0  0  0  0  0  0  0
   -1.2428   -0.6627   -0.8731 C   0  0  0  0  0  0  0  0  0  0  0  0
   -1.0040   -1.9601   -0.5418 N   0  0  0  0  0  0  0  0  0  0  0  0
   -2.3821   -0.0913   -1.3915 C   0  0  0  0  0  0  0  0  0  0  0  0
   -3.8901   -0.9278   -1.8564 S   0  0  0  0  0  4  0  0  0  0  0  0
   -3.5445   -2.3875   -1.9913 O   0  0  0  0  0  0  0  0  0  0  0  0
   -4.7905   -0.6416   -0.3047 C   0  0  0  0  0  0  0  0  0  0  0  0
   -4.9400    0.6874   -0.0651 F   0  0  0  0  0  0  0  0  0  0  0  0
   -6.0386   -1.1729   -0.3452 F   0  0  0  0  0  0  0  0  0  0  0  0
   -4.1647   -1.1693    0.7762 F   0  0  0  0  0  0  0  0  0  0  0  0
  1  2  3  0
  2  3  1  0
  3  4  2  0
  4  5  1  0
  5  6  1  0
  6  7  2  0
  7  8  1  0
  7  9  1  0
  9 10  2  0
 10 11  1  0
 11 12  1  0
 11 13  1  0
 11 14  1  0
 10 15  1  0
 15 16  2  0
 16 17  1  0
  5 18  1  0
 18 19  1  0
 18 20  2  0
 20 21  1  0
 21 22  2  0
 21 23  1  6
 23 24  1  0
 23 25  1  0
 23 26  1  0
 20  3  1  0
 16  6  1  0
M  END
