
     RDKit          3D

 24 26  0  0  0  0  0  0  0  0999 V2000
   -1.8172    0.5238    2.8812 N   0  0  0  0  0  0  0  0  0  0  0  0
   -1.6457    0.3372    1.7478 C   0  0  0  0  0  0  0  0  0  0  0  0
   -1.3977    0.0318    0.3097 C   0  0  2  0  0  0  0  0  0  0  0  0
    0.0740    0.4515   -0.0096 C   0  0  0  0  0  0  0  0  0  0  0  0
    1.1489   -0.3507    0.7472 C   0  0  0  0  0  0  0  0  0  0  0  0
    2.5350    0.0530    0.3034 C   0  0  0  0  0  0  0  0  0  0  0  0
    3.1447    1.1975    0.8368 C   0  0  0  0  0  0  0  0  0  0  0  0
    4.4176    1.5834    0.4115 C   0  0  0  0  0  0  0  0  0  0  0  0
    5.0847    0.8279   -0.5498 C   0  0  0  0  0  0  0  0  0  0  0  0
    6.6526    1.3033   -1.0753 Cl  0  0  0  0  0  0  0  0  0  0  0  0
    4.4897   -0.3102   -1.0902 C   0  0  0  0  0  0  0  0  0  0  0  0
    3.2164   -0.6963   -0.6660 C   0  0  0  0  0  0  0  0  0  0  0  0
   -2.4107    0.8335   -0.5577 C   0  0  0  0  0  0  0  0  0  0  0  0
   -2.2015    2.2638   -0.6057 N   0  0  0  0  0  0  0  0  0  0  0  0
   -1.7670    3.0092   -1.6569 C   0  0  0  0  0  0  0  0  0  0  0  0
   -1.7118    4.2719   -1.3026 N   0  0  0  0  0  0  0  0  0  0  0  0
   -2.1483    4.2475   -0.0086 C   0  0  0  0  0  0  0  0  0  0  0  0
   -2.4623    3.0363    0.4580 N   0  0  0  0  0  0  0  0  0  0  0  0
   -1.6516   -1.4641   -0.0236 C   0  0  0  0  0  0  0  0  0  0  0  0
   -2.4010   -2.2997    0.8275 C   0  0  0  0  0  0  0  0  0  0  0  0
   -2.6416   -3.6376    0.5006 C   0  0  0  0  0  0  0  0  0  0  0  0
   -2.1508   -4.1691   -0.6868 C   0  0  0  0  0  0  0  0  0  0  0  0
   -1.4229   -3.3621   -1.5535 C   0  0  0  0  0  0  0  0  0  0  0  0
   -1.1803   -2.0244   -1.2299 C   0  0  0  0  0  0  0  0  0  0  0  0
  1  2  3  0
  3  2  1  1
  3  4  1  0
  4  5  1  0
  5  6  1  0
  6  7  2  0
  7  8  1  0
  8  9  2  0
  9 10  1  0
  9 11  1  0
 11 12  2  0
  3 13  1  0
 13 14  1  0
 14 15  1  0
 15 16  2  0
 16 17  1  0
 17 18  2  0
  3 19  1  0
 19 20  2  0
 20 21  1  0
 21 22  2  0
 22 23  1  0
 23 24  2  0
 12  6  1  0
 18 14  1  0
 24 19  1  0
M  END
