
     RDKit          3D

 20 21  0  0  0  0  0  0  0  0999 V2000
   -1.6421    1.5383   -1.4325 C   0  0  0  0  0  0  0  0  0  0  0  0
   -1.8623    1.1442    0.0390 C   0  0  0  0  0  0  0  0  0  0  0  0
   -3.1803    0.3579    0.1517 C   0  0  0  0  0  0  0  0  0  0  0  0
   -2.0441    2.4458    0.8584 C   0  0  0  0  0  0  0  0  0  0  0  0
   -0.6167    0.3808    0.6068 C   0  0  1  0  0  0  0  0  0  0  0  0
   -0.8381    0.0239    1.9786 O   0  0  0  0  0  0  0  0  0  0  0  0
   -0.0491   -0.8262   -0.1998 C   0  0  1  0  0  0  0  0  0  0  0  0
    1.2796   -1.3569    0.3891 C   0  0  0  0  0  0  0  0  0  0  0  0
    2.4441   -0.4124    0.1958 C   0  0  0  0  0  0  0  0  0  0  0  0
    3.0986   -0.3316   -1.0416 C   0  0  0  0  0  0  0  0  0  0  0  0
    4.1642    0.5535   -1.2198 C   0  0  0  0  0  0  0  0  0  0  0  0
    4.5794    1.3610   -0.1630 C   0  0  0  0  0  0  0  0  0  0  0  0
    5.8901    2.4528   -0.3861 Cl  0  0  0  0  0  0  0  0  0  0  0  0
    3.9392    1.2902    1.0716 C   0  0  0  0  0  0  0  0  0  0  0  0
    2.8746    0.4046    1.2511 C   0  0  0  0  0  0  0  0  0  0  0  0
   -0.9825   -1.9407   -0.2937 N   0  0  0  0  0  0  0  0  0  0  0  0
   -1.3571   -2.6202   -1.4111 C   0  0  0  0  0  0  0  0  0  0  0  0
   -2.1738   -3.5922   -1.0778 N   0  0  0  0  0  0  0  0  0  0  0  0
   -2.2622   -3.4725    0.2796 C   0  0  0  0  0  0  0  0  0  0  0  0
   -1.5486   -2.4741    0.8098 N   0  0  0  0  0  0  0  0  0  0  0  0
  1  2  1  0
  2  3  1  0
  2  4  1  0
  2  5  1  0
  5  6  1  1
  5  7  1  0
  7  8  1  1
  8  9  1  0
  9 10  2  0
 10 11  1  0
 11 12  2  0
 12 13  1  0
 12 14  1  0
 14 15  2  0
  7 16  1  0
 16 17  1  0
 17 18  2  0
 18 19  1  0
 19 20  2  0
 15  9  1  0
 20 16  1  0
M  END
