
     RDKit          3D

 27 28  0  0  0  0  0  0  0  0999 V2000
   -2.9109    3.5695    0.5840 C   0  0  0  0  0  0  0  0  0  0  0  0
   -3.2917    2.4957    1.5915 C   0  0  0  0  0  0  0  0  0  0  0  0
   -4.2977    1.4765    1.0507 C   0  0  0  0  0  0  0  0  0  0  0  0
   -3.8562    0.6989   -0.1956 C   0  0  0  0  0  0  0  0  0  0  0  0
   -2.5235   -0.0652   -0.0708 C   0  0  1  0  0  0  0  0  0  0  0  0
   -2.4736   -1.0582    1.1129 C   0  0  0  0  0  0  0  0  0  0  0  0
   -3.5424   -2.1433    1.1019 C   0  0  0  0  0  0  0  0  0  0  0  0
   -2.1915   -0.7480   -1.4122 C   0  0  0  0  0  0  0  0  0  0  0  0
   -0.8693   -1.3115   -1.3697 O   0  0  0  0  0  0  0  0  0  0  0  0
    0.1251   -0.4952   -1.8057 C   0  0  0  0  0  0  0  0  0  0  0  0
   -0.0007    0.6331   -2.2546 O   0  0  0  0  0  0  0  0  0  0  0  0
    1.4217   -1.1865   -1.6566 C   0  0  0  0  0  0  0  0  0  0  0  0
    1.6253   -2.2894   -2.5313 C   0  0  0  0  0  0  0  0  0  0  0  0
    1.7830   -3.1826   -3.2563 N   0  0  0  0  0  0  0  0  0  0  0  0
    2.3309   -0.7552   -0.7472 C   0  0  0  0  0  0  0  0  0  0  0  0
    3.6578   -1.4172   -0.6581 C   0  0  0  0  0  0  0  0  0  0  0  0
    3.9768   -2.2082    0.4533 C   0  0  0  0  0  0  0  0  0  0  0  0
    5.2272   -2.8226    0.5458 C   0  0  0  0  0  0  0  0  0  0  0  0
    6.1678   -2.6485   -0.4678 C   0  0  0  0  0  0  0  0  0  0  0  0
    5.8628   -1.8567   -1.5740 C   0  0  0  0  0  0  0  0  0  0  0  0
    4.6144   -1.2389   -1.6683 C   0  0  0  0  0  0  0  0  0  0  0  0
    1.9817    0.3566    0.1718 C   0  0  0  0  0  0  0  0  0  0  0  0
    2.4021    1.6617   -0.1097 C   0  0  0  0  0  0  0  0  0  0  0  0
    2.0593    2.7093    0.7471 C   0  0  0  0  0  0  0  0  0  0  0  0
    1.3004    2.4588    1.8902 C   0  0  0  0  0  0  0  0  0  0  0  0
    0.8860    1.1603    2.1821 C   0  0  0  0  0  0  0  0  0  0  0  0
    1.2267    0.1109    1.3276 C   0  0  0  0  0  0  0  0  0  0  0  0
  1  2  1  0
  2  3  1  0
  3  4  1  0
  5  4  1  6
  5  6  1  0
  6  7  1  0
  5  8  1  0
  8  9  1  0
  9 10  1  0
 10 11  2  0
 10 12  1  0
 12 13  1  0
 13 14  3  0
 12 15  2  3
 15 16  1  0
 16 17  2  0
 17 18  1  0
 18 19  2  0
 19 20  1  0
 20 21  2  0
 15 22  1  0
 22 23  2  0
 23 24  1  0
 24 25  2  0
 25 26  1  0
 26 27  2  0
 21 16  1  0
 27 22  1  0
M  END
