
     RDKit          3D

 18 18  0  0  0  0  0  0  0  0999 V2000
   -3.8285   -1.4369    1.2163 C   0  0  0  0  0  0  0  0  0  0  0  0
   -2.5480   -1.2023    2.0055 C   0  0  0  0  0  0  0  0  0  0  0  0
   -1.5998   -0.2776    1.2491 C   0  0  0  0  0  0  0  0  0  0  0  0
   -0.0701   -0.0335    2.1922 S   0  0  0  0  0  0  0  0  0  0  0  0
    1.0784    1.2237    0.9389 P   0  0  2  0  0  5  0  0  0  0  0  0
    2.8136    1.8524    1.5822 S   0  0  0  0  0  0  0  0  0  0  0  0
    0.0725    2.4604    0.5941 O   0  0  0  0  0  0  0  0  0  0  0  0
    0.4574    3.4243   -0.3742 C   0  0  0  0  0  0  0  0  0  0  0  0
   -0.7834    4.1674   -0.8261 C   0  0  0  0  0  0  0  0  0  0  0  0
    1.1321    0.5256   -0.5217 O   0  0  0  0  0  0  0  0  0  0  0  0
    1.6872   -0.6771   -0.8611 C   0  0  0  0  0  0  0  0  0  0  0  0
    2.4253   -1.4689    0.0187 C   0  0  0  0  0  0  0  0  0  0  0  0
    2.9526   -2.6904   -0.4142 C   0  0  0  0  0  0  0  0  0  0  0  0
    2.7422   -3.1200   -1.7231 C   0  0  0  0  0  0  0  0  0  0  0  0
    3.3893   -4.6262   -2.2421 Cl  0  0  0  0  0  0  0  0  0  0  0  0
    2.0099   -2.3395   -2.6114 C   0  0  0  0  0  0  0  0  0  0  0  0
    1.4856   -1.1211   -2.1782 C   0  0  0  0  0  0  0  0  0  0  0  0
    0.5687   -0.1803   -3.3030 Cl  0  0  0  0  0  0  0  0  0  0  0  0
  1  2  1  0
  2  3  1  0
  3  4  1  0
  4  5  1  0
  5  6  2  0
  5  7  1  6
  7  8  1  0
  8  9  1  0
  5 10  1  0
 10 11  1  0
 11 12  2  0
 12 13  1  0
 13 14  2  0
 14 15  1  0
 14 16  1  0
 16 17  2  0
 17 18  1  0
 17 11  1  0
M  END
