
     RDKit          3D

 19 20  0  0  0  0  0  0  0  0999 V2000
   -1.4978    2.0941    1.8324 O   0  0  0  0  0  0  0  0  0  0  0  0
   -1.6602    1.1776    1.0400 C   0  0  0  0  0  0  0  0  0  0  0  0
   -3.0243    0.5950    0.7086 C   0  0  2  0  0  0  0  0  0  0  0  0
   -3.4914   -0.4927    2.0380 Cl  0  0  0  0  0  0  0  0  0  0  0  0
   -2.7719   -0.1088   -0.6228 C   0  0  2  0  0  0  0  0  0  0  0  0
   -3.7500   -1.2184   -0.9764 C   0  0  0  0  0  0  0  0  0  0  0  0
   -3.4340   -1.8382   -2.6175 Cl  0  0  0  0  0  0  0  0  0  0  0  0
   -1.3275   -0.5721   -0.4923 C   0  0  0  0  0  0  0  0  0  0  0  0
   -0.6956    0.4499    0.3154 N   0  0  0  0  0  0  0  0  0  0  0  0
    0.7177    0.5816    0.4201 C   0  0  0  0  0  0  0  0  0  0  0  0
    1.3131    1.6139    1.1546 C   0  0  0  0  0  0  0  0  0  0  0  0
    2.7042    1.7361    1.2455 C   0  0  0  0  0  0  0  0  0  0  0  0
    3.5325    0.8222    0.6033 C   0  0  0  0  0  0  0  0  0  0  0  0
    2.9747   -0.2285   -0.1311 C   0  0  0  0  0  0  0  0  0  0  0  0
    3.8559   -1.2200   -0.8492 C   0  0  0  0  0  0  0  0  0  0  0  0
    5.0963   -1.3389   -0.2997 F   0  0  0  0  0  0  0  0  0  0  0  0
    4.0532   -0.8846   -2.1537 F   0  0  0  0  0  0  0  0  0  0  0  0
    3.3335   -2.4786   -0.8629 F   0  0  0  0  0  0  0  0  0  0  0  0
    1.5717   -0.3321   -0.2209 C   0  0  0  0  0  0  0  0  0  0  0  0
  1  2  2  0
  2  3  1  0
  3  4  1  1
  3  5  1  0
  5  6  1  1
  6  7  1  0
  5  8  1  0
  8  9  1  0
  9 10  1  0
 10 11  2  0
 11 12  1  0
 12 13  2  0
 13 14  1  0
 14 15  1  0
 15 16  1  0
 15 17  1  0
 15 18  1  0
 14 19  2  0
  9  2  1  0
 19 10  1  0
M  END
