
     RDKit          3D

 20 21  0  0  0  0  0  0  0  0999 V2000
   -2.5882   -0.8014    1.1879 C   0  0  0  0  0  0  0  0  0  0  0  0
   -1.5405   -1.2053    0.1349 C   0  0  0  0  0  0  0  0  0  0  0  0
   -0.4073   -1.9566    0.8535 C   0  0  0  0  0  0  0  0  0  0  0  0
   -2.2155   -2.2021   -0.8375 C   0  0  0  0  0  0  0  0  0  0  0  0
   -1.0117    0.0272   -0.6858 C   0  0  2  0  0  0  0  0  0  0  0  0
   -0.1368   -0.4550   -1.7120 O   0  0  0  0  0  0  0  0  0  0  0  0
   -0.3464    1.1765    0.1007 C   0  0  0  0  0  0  0  0  0  0  0  0
    0.9877    1.3189    0.3193 C   0  0  0  0  0  0  0  0  0  0  0  0
    2.1073    0.4703   -0.1078 C   0  0  0  0  0  0  0  0  0  0  0  0
    2.6671    0.6240   -1.3824 C   0  0  0  0  0  0  0  0  0  0  0  0
    3.7619   -0.1526   -1.7714 C   0  0  0  0  0  0  0  0  0  0  0  0
    4.3106   -1.0707   -0.8788 C   0  0  0  0  0  0  0  0  0  0  0  0
    5.6603   -2.0249   -1.3553 Cl  0  0  0  0  0  0  0  0  0  0  0  0
    3.7809   -1.2112    0.4020 C   0  0  0  0  0  0  0  0  0  0  0  0
    2.6863   -0.4338    0.7897 C   0  0  0  0  0  0  0  0  0  0  0  0
   -1.2667    2.1718    0.5503 N   0  0  0  0  0  0  0  0  0  0  0  0
   -1.0033    3.2709    1.3644 C   0  0  0  0  0  0  0  0  0  0  0  0
   -2.0743    4.0001    1.5660 N   0  0  0  0  0  0  0  0  0  0  0  0
   -3.0168    3.3316    0.8631 C   0  0  0  0  0  0  0  0  0  0  0  0
   -2.5963    2.2367    0.2364 N   0  0  0  0  0  0  0  0  0  0  0  0
  1  2  1  0
  2  3  1  0
  2  4  1  0
  2  5  1  0
  5  6  1  6
  5  7  1  0
  7  8  2  0
  8  9  1  0
  9 10  2  0
 10 11  1  0
 11 12  2  0
 12 13  1  0
 12 14  1  0
 14 15  2  0
  7 16  1  0
 16 17  1  0
 17 18  2  0
 18 19  1  0
 19 20  2  0
 15  9  1  0
 20 16  1  0
M  END
