
     RDKit          3D

 27 29  0  0  0  0  0  0  0  0999 V2000
    3.0375    1.4336    0.4114 C   0  0  0  0  0  0  0  0  0  0  0  0
    2.2880    0.0966    0.5149 C   0  0  2  0  0  0  0  0  0  0  0  0
    2.1755   -0.2433    1.9004 O   0  0  0  0  0  0  0  0  0  0  0  0
    3.1035   -1.0563   -0.1366 C   0  0  0  0  0  0  0  0  0  0  0  0
    4.4629   -1.1850    0.3533 N   0  0  0  0  0  0  0  0  0  0  0  0
    4.8898   -1.6991    1.5374 C   0  0  0  0  0  0  0  0  0  0  0  0
    6.2028   -1.7123    1.5617 N   0  0  0  0  0  0  0  0  0  0  0  0
    6.5375   -1.1864    0.3472 C   0  0  0  0  0  0  0  0  0  0  0  0
    5.5057   -0.8589   -0.4357 N   0  0  0  0  0  0  0  0  0  0  0  0
    0.8759    0.2787   -0.0960 C   0  0  0  0  0  0  0  0  0  0  0  0
    0.7029    0.0835   -1.4875 C   0  0  0  0  0  0  0  0  0  0  0  0
   -0.5372    0.2371   -2.1125 C   0  0  0  0  0  0  0  0  0  0  0  0
   -1.6477    0.5953   -1.3674 C   0  0  0  0  0  0  0  0  0  0  0  0
   -2.8329    0.7613   -2.0438 O   0  0  0  0  0  0  0  0  0  0  0  0
   -3.9637    0.2243   -1.4725 C   0  0  0  0  0  0  0  0  0  0  0  0
   -5.0905    1.0445   -1.3990 C   0  0  0  0  0  0  0  0  0  0  0  0
   -6.2780    0.5470   -0.8589 C   0  0  0  0  0  0  0  0  0  0  0  0
   -6.3346   -0.7728   -0.4113 C   0  0  0  0  0  0  0  0  0  0  0  0
   -7.7979   -1.3868    0.2531 Cl  0  0  0  0  0  0  0  0  0  0  0  0
   -5.2164   -1.6017   -0.5052 C   0  0  0  0  0  0  0  0  0  0  0  0
   -4.0280   -1.1051   -1.0449 C   0  0  0  0  0  0  0  0  0  0  0  0
   -1.5076    0.8574   -0.0068 C   0  0  0  0  0  0  0  0  0  0  0  0
   -0.2595    0.7185    0.6481 C   0  0  0  0  0  0  0  0  0  0  0  0
   -0.2367    1.0512    2.1335 C   0  0  0  0  0  0  0  0  0  0  0  0
   -0.0894   -0.0688    2.8984 F   0  0  0  0  0  0  0  0  0  0  0  0
    0.7439    1.9191    2.4914 F   0  0  0  0  0  0  0  0  0  0  0  0
   -1.3958    1.6261    2.5717 F   0  0  0  0  0  0  0  0  0  0  0  0
  2  1  1  1
  2  3  1  0
  2  4  1  0
  4  5  1  0
  5  6  1  0
  6  7  2  0
  7  8  1  0
  8  9  2  0
  2 10  1  0
 10 11  2  0
 11 12  1  0
 12 13  2  0
 13 14  1  0
 14 15  1  0
 15 16  2  0
 16 17  1  0
 17 18  2  0
 18 19  1  0
 18 20  1  0
 20 21  2  0
 13 22  1  0
 22 23  2  0
 23 24  1  0
 24 25  1  0
 24 26  1  0
 24 27  1  0
  9  5  1  0
 23 10  1  0
 21 15  1  0
M  END
