
     RDKit          3D

 21 22  0  0  0  0  0  0  0  0999 V2000
   -2.5575    0.2835    1.4230 C   0  0  0  0  0  0  0  0  0  0  0  0
   -2.4299   -0.5245    0.1184 C   0  0  0  0  0  0  0  0  0  0  0  0
   -3.0250   -1.9270    0.3996 C   0  0  0  0  0  0  0  0  0  0  0  0
   -3.3077    0.1532   -0.9521 C   0  0  0  0  0  0  0  0  0  0  0  0
   -0.9308   -0.6866   -0.3425 C   0  0  1  0  0  0  0  0  0  0  0  0
   -0.8743   -1.7055   -1.3655 O   0  0  0  0  0  0  0  0  0  0  0  0
   -0.1798    0.5738   -0.8739 C   0  0  2  0  0  0  0  0  0  0  0  0
    1.1539    0.2579   -1.6132 C   0  0  0  0  0  0  0  0  0  0  0  0
    2.3077   -0.2661   -0.7806 C   0  0  0  0  0  0  0  0  0  0  0  0
    2.3454   -1.6347   -0.4586 C   0  0  0  0  0  0  0  0  0  0  0  0
    3.3759   -2.1626    0.3220 C   0  0  0  0  0  0  0  0  0  0  0  0
    4.3878   -1.3290    0.7855 C   0  0  0  0  0  0  0  0  0  0  0  0
    5.6580   -1.9803    1.7462 Cl  0  0  0  0  0  0  0  0  0  0  0  0
    4.3842    0.0251    0.4690 C   0  0  0  0  0  0  0  0  0  0  0  0
    3.3526    0.5537   -0.3130 C   0  0  0  0  0  0  0  0  0  0  0  0
    3.4422    2.2387   -0.6929 Cl  0  0  0  0  0  0  0  0  0  0  0  0
    0.0069    1.6243    0.1102 N   0  0  0  0  0  0  0  0  0  0  0  0
   -0.2318    2.9560   -0.0500 C   0  0  0  0  0  0  0  0  0  0  0  0
    0.0595    3.5918    1.0607 N   0  0  0  0  0  0  0  0  0  0  0  0
    0.5000    2.5923    1.8796 C   0  0  0  0  0  0  0  0  0  0  0  0
    0.4747    1.3680    1.3464 N   0  0  0  0  0  0  0  0  0  0  0  0
  1  2  1  0
  2  3  1  0
  2  4  1  0
  2  5  1  0
  5  6  1  6
  5  7  1  0
  7  8  1  1
  8  9  1  0
  9 10  2  0
 10 11  1  0
 11 12  2  0
 12 13  1  0
 12 14  1  0
 14 15  2  0
 15 16  1  0
  7 17  1  0
 17 18  1  0
 18 19  2  0
 19 20  1  0
 20 21  2  0
 15  9  1  0
 21 17  1  0
M  END
