
     RDKit          3D

 18 19  0  0  0  0  0  0  0  0999 V2000
   -3.4587   -1.6427   -1.3986 C   0  0  0  0  0  0  0  0  0  0  0  0
   -2.9202   -0.4155   -1.4531 C   0  0  0  0  0  0  0  0  0  0  0  0
   -2.1931    0.3007   -0.3388 C   0  0  1  0  0  0  0  0  0  0  0  0
   -2.8961    1.5907    0.0674 C   0  0  0  0  0  0  0  0  0  0  0  0
   -2.0569   -0.5298    0.8058 O   0  0  0  0  0  0  0  0  0  0  0  0
   -0.7313   -0.7084    1.0758 C   0  0  0  0  0  0  0  0  0  0  0  0
   -0.3916   -1.3591    2.0526 O   0  0  0  0  0  0  0  0  0  0  0  0
    0.0548   -0.0659    0.1601 N   0  0  0  0  0  0  0  0  0  0  0  0
    1.4886   -0.0604    0.1446 C   0  0  0  0  0  0  0  0  0  0  0  0
    2.2411   -0.8990    0.9866 C   0  0  0  0  0  0  0  0  0  0  0  0
    3.6418   -0.8902    0.9660 C   0  0  0  0  0  0  0  0  0  0  0  0
    4.5160   -1.9418    2.0127 Cl  0  0  0  0  0  0  0  0  0  0  0  0
    4.3365   -0.0488    0.1106 C   0  0  0  0  0  0  0  0  0  0  0  0
    3.6148    0.7861   -0.7285 C   0  0  0  0  0  0  0  0  0  0  0  0
    4.4546    1.8445   -1.7964 Cl  0  0  0  0  0  0  0  0  0  0  0  0
    2.2140    0.7830   -0.7160 C   0  0  0  0  0  0  0  0  0  0  0  0
   -0.7566    0.5773   -0.7391 C   0  0  0  0  0  0  0  0  0  0  0  0
   -0.4508    1.2573   -1.7114 O   0  0  0  0  0  0  0  0  0  0  0  0
  1  2  2  0
  2  3  1  0
  3  4  1  1
  3  5  1  0
  5  6  1  0
  6  7  2  0
  6  8  1  0
  8  9  1  0
  9 10  2  0
 10 11  1  0
 11 12  1  0
 11 13  2  0
 13 14  1  0
 14 15  1  0
 14 16  2  0
  8 17  1  0
 17 18  2  0
 17  3  1  0
 16  9  1  0
M  END
