
     RDKit          3D

 26 28  0  0  0  0  0  0  0  0999 V2000
   -2.4310   -2.0784   -3.4356 C   0  0  0  0  0  0  0  0  0  0  0  0
   -1.6213   -0.9925   -2.7683 C   0  0  0  0  0  0  0  0  0  0  0  0
   -2.1344   -0.6300   -1.3930 C   0  0  0  0  0  0  0  0  0  0  0  0
   -0.9792    0.1229   -3.5791 C   0  0  2  0  0  0  0  0  0  0  0  0
   -1.2136    0.2219   -5.0288 C   0  0  0  0  0  0  0  0  0  0  0  0
   -0.3232    0.5164   -5.9885 C   0  0  0  0  0  0  0  0  0  0  0  0
   -0.8222    0.5978   -7.6414 Cl  0  0  0  0  0  0  0  0  0  0  0  0
    1.3388    0.8236   -5.6435 Cl  0  0  0  0  0  0  0  0  0  0  0  0
   -0.1204   -0.9996   -3.0306 C   0  0  1  0  0  0  0  0  0  0  0  0
    0.8370   -0.7404   -1.9294 C   0  0  0  0  0  0  0  0  0  0  0  0
    1.2939    0.3697   -1.7044 O   0  0  0  0  0  0  0  0  0  0  0  0
    1.0838   -1.8773   -1.2328 O   0  0  0  0  0  0  0  0  0  0  0  0
    1.8794   -1.7108   -0.0553 C   0  0  0  0  0  0  0  0  0  0  0  0
    0.9666   -1.5638    1.1344 C   0  0  0  0  0  0  0  0  0  0  0  0
    0.3727   -2.6916    1.7199 C   0  0  0  0  0  0  0  0  0  0  0  0
   -0.5122   -2.5520    2.7908 C   0  0  0  0  0  0  0  0  0  0  0  0
   -0.8129   -1.2840    3.2858 C   0  0  0  0  0  0  0  0  0  0  0  0
   -0.2193   -0.1576    2.7180 C   0  0  0  0  0  0  0  0  0  0  0  0
   -0.5927    1.0669    3.2248 O   0  0  0  0  0  0  0  0  0  0  0  0
    0.4100    1.9797    3.4605 C   0  0  0  0  0  0  0  0  0  0  0  0
    1.5525    1.6635    4.2001 C   0  0  0  0  0  0  0  0  0  0  0  0
    2.5175    2.6436    4.4354 C   0  0  0  0  0  0  0  0  0  0  0  0
    2.3327    3.9374    3.9457 C   0  0  0  0  0  0  0  0  0  0  0  0
    1.1800    4.2559    3.2266 C   0  0  0  0  0  0  0  0  0  0  0  0
    0.2133    3.2782    2.9904 C   0  0  0  0  0  0  0  0  0  0  0  0
    0.6510   -0.2915    1.6325 C   0  0  0  0  0  0  0  0  0  0  0  0
  1  2  1  0
  2  3  1  0
  2  4  1  0
  4  5  1  6
  5  6  2  3
  6  7  1  0
  6  8  1  0
  4  9  1  0
  9 10  1  1
 10 11  2  0
 10 12  1  0
 12 13  1  0
 13 14  1  0
 14 15  2  0
 15 16  1  0
 16 17  2  0
 17 18  1  0
 18 19  1  0
 19 20  1  0
 20 21  2  0
 21 22  1  0
 22 23  2  0
 23 24  1  0
 24 25  2  0
 18 26  2  0
  9  2  1  0
 26 14  1  0
 25 20  1  0
M  END
