
     RDKit          3D

 22 24  0  0  0  0  0  0  0  0999 V2000
   -1.8387   -1.5570   -1.4025 C   0  0  0  0  0  0  0  0  0  0  0  0
   -1.6968   -1.1116    0.0688 C   0  0  0  0  0  0  0  0  0  0  0  0
   -3.0872   -1.1630    0.7224 C   0  0  0  0  0  0  0  0  0  0  0  0
   -0.7569   -2.1076    0.7919 C   0  0  0  0  0  0  0  0  0  0  0  0
    0.6590   -1.5387    0.6846 C   0  0  0  0  0  0  0  0  0  0  0  0
    0.5375   -0.1613    0.0097 C   0  0  2  0  0  0  0  0  0  0  0  0
    1.5824    0.8440    0.5286 C   0  0  0  0  0  0  0  0  0  0  0  0
    2.9903    0.4873    0.1061 C   0  0  0  0  0  0  0  0  0  0  0  0
    3.8719   -0.1221    1.0099 C   0  0  0  0  0  0  0  0  0  0  0  0
    5.1672   -0.4635    0.6146 C   0  0  0  0  0  0  0  0  0  0  0  0
    5.5869   -0.1965   -0.6863 C   0  0  0  0  0  0  0  0  0  0  0  0
    7.1821   -0.6185   -1.1740 Cl  0  0  0  0  0  0  0  0  0  0  0  0
    4.7231    0.4100   -1.5952 C   0  0  0  0  0  0  0  0  0  0  0  0
    3.4277    0.7511   -1.2001 C   0  0  0  0  0  0  0  0  0  0  0  0
   -0.9460    0.2529    0.2446 C   0  0  2  0  0  0  0  0  0  0  0  0
   -1.0351    0.7333    1.5934 O   0  0  0  0  0  0  0  0  0  0  0  0
   -1.3327    1.4106   -0.7098 C   0  0  0  0  0  0  0  0  0  0  0  0
   -2.7308    1.7845   -0.7539 N   0  0  0  0  0  0  0  0  0  0  0  0
   -3.5669    1.7267   -1.8292 C   0  0  0  0  0  0  0  0  0  0  0  0
   -4.7350    2.2337   -1.5108 N   0  0  0  0  0  0  0  0  0  0  0  0
   -4.5491    2.6345   -0.2193 C   0  0  0  0  0  0  0  0  0  0  0  0
   -3.3335    2.4010    0.2791 N   0  0  0  0  0  0  0  0  0  0  0  0
  1  2  1  0
  2  3  1  0
  2  4  1  0
  4  5  1  0
  5  6  1  0
  6  7  1  1
  7  8  1  0
  8  9  2  0
  9 10  1  0
 10 11  2  0
 11 12  1  0
 11 13  1  0
 13 14  2  0
  6 15  1  0
 15 16  1  1
 15 17  1  0
 17 18  1  0
 18 19  1  0
 19 20  2  0
 20 21  1  0
 21 22  2  0
 15  2  1  0
 22 18  1  0
 14  8  1  0
M  END
