
     RDKit          3D

 26 28  0  0  0  0  0  0  0  0999 V2000
   -2.7561    3.3969   -0.9434 C   0  0  0  0  0  0  0  0  0  0  0  0
   -3.7583    2.2705   -0.8455 C   0  0  0  0  0  0  0  0  0  0  0  0
   -5.1574    2.6866   -1.2325 C   0  0  0  0  0  0  0  0  0  0  0  0
   -3.2465    0.8673   -1.1346 C   0  0  2  0  0  0  0  0  0  0  0  0
   -4.0747   -0.1046   -1.8665 C   0  0  0  0  0  0  0  0  0  0  0  0
   -4.1843   -1.4226   -1.6395 C   0  0  0  0  0  0  0  0  0  0  0  0
   -5.2075   -2.3949   -2.6368 Cl  0  0  0  0  0  0  0  0  0  0  0  0
   -3.3285   -2.2139   -0.3670 Cl  0  0  0  0  0  0  0  0  0  0  0  0
   -3.6324    1.2538    0.2799 C   0  0  1  0  0  0  0  0  0  0  0  0
   -2.6117    1.4102    1.3431 C   0  0  0  0  0  0  0  0  0  0  0  0
   -2.7367    2.2318    2.2381 O   0  0  0  0  0  0  0  0  0  0  0  0
   -1.5905    0.5321    1.1982 O   0  0  0  0  0  0  0  0  0  0  0  0
   -0.5988    0.6283    2.2216 C   0  0  0  0  0  0  0  0  0  0  0  0
    0.4775   -0.3829    1.9212 C   0  0  0  0  0  0  0  0  0  0  0  0
    0.1816   -1.7550    1.9273 C   0  0  0  0  0  0  0  0  0  0  0  0
    1.1751   -2.6987    1.6597 C   0  0  0  0  0  0  0  0  0  0  0  0
    2.4744   -2.2821    1.3746 C   0  0  0  0  0  0  0  0  0  0  0  0
    2.7716   -0.9184    1.3406 C   0  0  0  0  0  0  0  0  0  0  0  0
    4.0400   -0.4435    1.0954 O   0  0  0  0  0  0  0  0  0  0  0  0
    4.7019   -0.9457   -0.0025 C   0  0  0  0  0  0  0  0  0  0  0  0
    6.0502   -1.2632    0.1653 C   0  0  0  0  0  0  0  0  0  0  0  0
    6.7909   -1.7465   -0.9137 C   0  0  0  0  0  0  0  0  0  0  0  0
    6.1868   -1.8972   -2.1623 C   0  0  0  0  0  0  0  0  0  0  0  0
    4.8444   -1.5580   -2.3355 C   0  0  0  0  0  0  0  0  0  0  0  0
    4.1014   -1.0739   -1.2578 C   0  0  0  0  0  0  0  0  0  0  0  0
    1.7860    0.0269    1.6316 C   0  0  0  0  0  0  0  0  0  0  0  0
  1  2  1  0
  2  3  1  0
  2  4  1  0
  4  5  1  6
  5  6  2  3
  6  7  1  0
  6  8  1  0
  4  9  1  0
  9 10  1  1
 10 11  2  0
 10 12  1  0
 12 13  1  0
 13 14  1  0
 14 15  2  0
 15 16  1  0
 16 17  2  0
 17 18  1  0
 18 19  1  0
 19 20  1  0
 20 21  2  0
 21 22  1  0
 22 23  2  0
 23 24  1  0
 24 25  2  0
 18 26  2  0
  9  2  1  0
 26 14  1  0
 25 20  1  0
M  END
