
     RDKit          3D

 26 27  0  0  0  0  0  0  0  0999 V2000
    3.5251   -3.3756    2.2560 N   0  0  0  0  0  0  0  0  0  0  0  0
    2.8465   -2.6388    1.6686 C   0  0  0  0  0  0  0  0  0  0  0  0
    2.0843   -1.7004    0.8996 C   0  0  0  0  0  0  0  0  0  0  0  0
    0.7614   -1.6175    1.0776 N   0  0  0  0  0  0  0  0  0  0  0  0
    0.3603   -0.6496    0.2082 N   0  0  0  0  0  0  0  0  0  0  0  0
   -0.9906   -0.2423    0.1829 C   0  0  0  0  0  0  0  0  0  0  0  0
   -2.0020   -1.1899   -0.0394 C   0  0  0  0  0  0  0  0  0  0  0  0
   -1.6887   -2.8488   -0.4223 Cl  0  0  0  0  0  0  0  0  0  0  0  0
   -3.3449   -0.7915   -0.0533 C   0  0  0  0  0  0  0  0  0  0  0  0
   -3.7013    0.5463    0.1644 C   0  0  0  0  0  0  0  0  0  0  0  0
   -5.1484    0.9752    0.1246 C   0  0  0  0  0  0  0  0  0  0  0  0
   -5.4122    2.0252    0.9485 F   0  0  0  0  0  0  0  0  0  0  0  0
   -5.5288    1.3665   -1.1210 F   0  0  0  0  0  0  0  0  0  0  0  0
   -6.0073   -0.0145    0.4900 F   0  0  0  0  0  0  0  0  0  0  0  0
   -2.6843    1.4851    0.3876 C   0  0  0  0  0  0  0  0  0  0  0  0
   -1.3377    1.0983    0.4077 C   0  0  0  0  0  0  0  0  0  0  0  0
   -0.1974    2.3243    0.8436 Cl  0  0  0  0  0  0  0  0  0  0  0  0
    1.4216   -0.1723   -0.5635 C   0  0  0  0  0  0  0  0  0  0  0  0
    1.3043    0.7201   -1.5784 N   0  0  0  0  0  0  0  0  0  0  0  0
    2.5391   -0.8195   -0.0903 C   0  0  0  0  0  0  0  0  0  0  0  0
    4.2199   -0.6283   -0.6625 S   0  0  0  0  0  4  0  0  0  0  0  0
    4.1409    0.0195   -2.0198 O   0  0  0  0  0  0  0  0  0  0  0  0
    4.7366    0.5895    0.5819 C   0  0  0  0  0  0  0  0  0  0  0  0
    6.0378    0.9424    0.4272 F   0  0  0  0  0  0  0  0  0  0  0  0
    4.6165    0.0838    1.8376 F   0  0  0  0  0  0  0  0  0  0  0  0
    4.0041    1.7296    0.5445 F   0  0  0  0  0  0  0  0  0  0  0  0
  1  2  3  0
  2  3  1  0
  3  4  2  0
  4  5  1  0
  5  6  1  0
  6  7  2  0
  7  8  1  0
  7  9  1  0
  9 10  2  0
 10 11  1  0
 11 12  1  0
 11 13  1  0
 11 14  1  0
 10 15  1  0
 15 16  2  0
 16 17  1  0
  5 18  1  0
 18 19  1  0
 18 20  2  0
 20 21  1  0
 21 22  2  0
 21 23  1  1
 23 24  1  0
 23 25  1  0
 23 26  1  0
 20  3  1  0
 16  6  1  0
M  END
