
     RDKit          3D

 26 28  0  0  0  0  0  0  0  0999 V2000
   -3.9851   -1.3867    1.7594 C   0  0  0  0  0  0  0  0  0  0  0  0
   -3.0057   -0.8182    0.7615 C   0  0  0  0  0  0  0  0  0  0  0  0
   -1.5825   -0.8341    1.2693 C   0  0  0  0  0  0  0  0  0  0  0  0
   -3.2876   -1.0785   -0.7106 C   0  0  2  0  0  0  0  0  0  0  0  0
   -2.2382   -1.3812   -1.7128 C   0  0  0  0  0  0  0  0  0  0  0  0
   -2.2168   -0.8345   -2.8042 O   0  0  0  0  0  0  0  0  0  0  0  0
   -1.4046   -2.3589   -1.2872 O   0  0  0  0  0  0  0  0  0  0  0  0
   -0.3121   -2.6780   -2.1538 C   0  0  0  0  0  0  0  0  0  0  0  0
    0.9504   -2.1742   -1.5072 C   0  0  0  0  0  0  0  0  0  0  0  0
    1.6946   -3.0014   -0.6524 C   0  0  0  0  0  0  0  0  0  0  0  0
    2.8373   -2.5167   -0.0124 C   0  0  0  0  0  0  0  0  0  0  0  0
    3.2363   -1.1948   -0.2020 C   0  0  0  0  0  0  0  0  0  0  0  0
    2.4824   -0.3591   -1.0275 C   0  0  0  0  0  0  0  0  0  0  0  0
    2.8440    0.9497   -1.2516 O   0  0  0  0  0  0  0  0  0  0  0  0
    2.9124    1.7700   -0.1459 C   0  0  0  0  0  0  0  0  0  0  0  0
    1.9160    1.8120    0.8298 C   0  0  0  0  0  0  0  0  0  0  0  0
    2.0298    2.6971    1.9035 C   0  0  0  0  0  0  0  0  0  0  0  0
    3.1360    3.5437    1.9973 C   0  0  0  0  0  0  0  0  0  0  0  0
    4.1224    3.5166    1.0117 C   0  0  0  0  0  0  0  0  0  0  0  0
    4.0065    2.6358   -0.0659 C   0  0  0  0  0  0  0  0  0  0  0  0
    1.3597   -0.8469   -1.6967 C   0  0  0  0  0  0  0  0  0  0  0  0
   -3.4958    0.3099   -0.1378 C   0  0  2  0  0  0  0  0  0  0  0  0
   -2.5979    1.4367   -0.4601 C   0  0  0  0  0  0  0  0  0  0  0  0
   -2.2925    2.4817    0.3241 C   0  0  0  0  0  0  0  0  0  0  0  0
   -1.1959    3.6930   -0.2255 Cl  0  0  0  0  0  0  0  0  0  0  0  0
   -2.9656    2.6656    1.9039 Cl  0  0  0  0  0  0  0  0  0  0  0  0
  1  2  1  0
  2  3  1  0
  2  4  1  0
  4  5  1  6
  5  6  2  0
  5  7  1  0
  7  8  1  0
  8  9  1  0
  9 10  2  0
 10 11  1  0
 11 12  2  0
 12 13  1  0
 13 14  1  0
 14 15  1  0
 15 16  2  0
 16 17  1  0
 17 18  2  0
 18 19  1  0
 19 20  2  0
 13 21  2  0
  4 22  1  0
 22 23  1  6
 23 24  2  3
 24 25  1  0
 24 26  1  0
 22  2  1  0
 21  9  1  0
 20 15  1  0
M  END
