
     RDKit          3D

 20 21  0  0  0  0  0  0  0  0999 V2000
   -2.8734   -0.4833    0.4033 C   0  0  0  0  0  0  0  0  0  0  0  0
   -1.4672   -1.1030    0.3381 C   0  0  0  0  0  0  0  0  0  0  0  0
   -1.5317   -2.4659    1.0671 C   0  0  0  0  0  0  0  0  0  0  0  0
   -1.1307   -1.3735   -1.1403 C   0  0  0  0  0  0  0  0  0  0  0  0
   -0.3524   -0.2229    1.0125 C   0  0  2  0  0  0  0  0  0  0  0  0
   -0.5909   -0.0902    2.4183 O   0  0  0  0  0  0  0  0  0  0  0  0
   -0.0415    1.1533    0.3959 C   0  0  0  0  0  0  0  0  0  0  0  0
    1.0276    1.3538   -0.4164 C   0  0  0  0  0  0  0  0  0  0  0  0
    2.0380    0.3659   -0.8146 C   0  0  0  0  0  0  0  0  0  0  0  0
    2.0992   -0.0632   -2.1455 C   0  0  0  0  0  0  0  0  0  0  0  0
    3.0706   -0.9856   -2.5433 C   0  0  0  0  0  0  0  0  0  0  0  0
    3.9883   -1.4702   -1.6131 C   0  0  0  0  0  0  0  0  0  0  0  0
    5.1832   -2.6059   -2.1039 Cl  0  0  0  0  0  0  0  0  0  0  0  0
    3.9463   -1.0372   -0.2895 C   0  0  0  0  0  0  0  0  0  0  0  0
    2.9753   -0.1146    0.1083 C   0  0  0  0  0  0  0  0  0  0  0  0
   -0.9069    2.2213    0.7593 N   0  0  0  0  0  0  0  0  0  0  0  0
   -0.8983    3.5266    0.2774 C   0  0  0  0  0  0  0  0  0  0  0  0
   -1.8280    4.2620    0.8379 N   0  0  0  0  0  0  0  0  0  0  0  0
   -2.4154    3.3907    1.6900 C   0  0  0  0  0  0  0  0  0  0  0  0
   -1.9125    2.1584    1.6905 N   0  0  0  0  0  0  0  0  0  0  0  0
  1  2  1  0
  2  3  1  0
  2  4  1  0
  2  5  1  0
  5  6  1  1
  5  7  1  0
  7  8  2  0
  8  9  1  0
  9 10  2  0
 10 11  1  0
 11 12  2  0
 12 13  1  0
 12 14  1  0
 14 15  2  0
  7 16  1  0
 16 17  1  0
 17 18  2  0
 18 19  1  0
 19 20  2  0
 15  9  1  0
 20 16  1  0
M  END
