
     RDKit          3D

 24 26  0  0  0  0  0  0  0  0999 V2000
   -1.3622    0.5627    3.0739 N   0  0  0  0  0  0  0  0  0  0  0  0
   -1.3127    0.3689    1.9306 C   0  0  0  0  0  0  0  0  0  0  0  0
   -1.2851    0.1443    0.4602 C   0  0  2  0  0  0  0  0  0  0  0  0
    0.1743    0.3938   -0.0336 C   0  0  0  0  0  0  0  0  0  0  0  0
    1.2049   -0.6290    0.4793 C   0  0  0  0  0  0  0  0  0  0  0  0
    2.5871   -0.3197   -0.0444 C   0  0  0  0  0  0  0  0  0  0  0  0
    3.0488   -0.9183   -1.2250 C   0  0  0  0  0  0  0  0  0  0  0  0
    4.3200   -0.6172   -1.7190 C   0  0  0  0  0  0  0  0  0  0  0  0
    5.1320    0.2864   -1.0370 C   0  0  0  0  0  0  0  0  0  0  0  0
    6.6976    0.6571   -1.6471 Cl  0  0  0  0  0  0  0  0  0  0  0  0
    4.6837    0.8925    0.1343 C   0  0  0  0  0  0  0  0  0  0  0  0
    3.4129    0.5916    0.6290 C   0  0  0  0  0  0  0  0  0  0  0  0
   -2.2903    1.1512   -0.1728 C   0  0  0  0  0  0  0  0  0  0  0  0
   -1.9753    2.5507    0.0184 N   0  0  0  0  0  0  0  0  0  0  0  0
   -2.4357    3.3970    0.9771 C   0  0  0  0  0  0  0  0  0  0  0  0
   -1.9522    4.5991    0.7644 N   0  0  0  0  0  0  0  0  0  0  0  0
   -1.1986    4.4351   -0.3618 C   0  0  0  0  0  0  0  0  0  0  0  0
   -1.1883    3.1957   -0.8605 N   0  0  0  0  0  0  0  0  0  0  0  0
   -1.7686   -1.2726    0.0587 C   0  0  0  0  0  0  0  0  0  0  0  0
   -1.6953   -1.6897   -1.2876 C   0  0  0  0  0  0  0  0  0  0  0  0
   -2.1316   -2.9573   -1.6801 C   0  0  0  0  0  0  0  0  0  0  0  0
   -2.6545   -3.8367   -0.7391 C   0  0  0  0  0  0  0  0  0  0  0  0
   -2.7429   -3.4484    0.5935 C   0  0  0  0  0  0  0  0  0  0  0  0
   -2.3075   -2.1802    0.9902 C   0  0  0  0  0  0  0  0  0  0  0  0
  1  2  3  0
  3  2  1  1
  3  4  1  0
  4  5  1  0
  5  6  1  0
  6  7  2  0
  7  8  1  0
  8  9  2  0
  9 10  1  0
  9 11  1  0
 11 12  2  0
  3 13  1  0
 13 14  1  0
 14 15  1  0
 15 16  2  0
 16 17  1  0
 17 18  2  0
  3 19  1  0
 19 20  2  0
 20 21  1  0
 21 22  2  0
 22 23  1  0
 23 24  2  0
 12  6  1  0
 18 14  1  0
 24 19  1  0
M  END
