
     RDKit          3D

 19 20  0  0  0  0  0  0  0  0999 V2000
    0.6119    2.2322   -1.2389 O   0  0  0  0  0  0  0  0  0  0  0  0
    1.1752    1.2727   -0.7327 C   0  0  0  0  0  0  0  0  0  0  0  0
    2.6882    1.1297   -0.6581 C   0  0  2  0  0  0  0  0  0  0  0  0
    3.2512    0.5708   -2.2535 Cl  0  0  0  0  0  0  0  0  0  0  0  0
    2.8593    0.1048    0.4623 C   0  0  2  0  0  0  0  0  0  0  0  0
    4.1594   -0.6804    0.5074 C   0  0  0  0  0  0  0  0  0  0  0  0
    5.5479    0.4019    0.7564 Cl  0  0  0  0  0  0  0  0  0  0  0  0
    1.6418   -0.7899    0.2859 C   0  0  0  0  0  0  0  0  0  0  0  0
    0.6064    0.1111   -0.1697 N   0  0  0  0  0  0  0  0  0  0  0  0
   -0.7749   -0.2278   -0.1429 C   0  0  0  0  0  0  0  0  0  0  0  0
   -1.1890   -1.5068    0.2618 C   0  0  0  0  0  0  0  0  0  0  0  0
   -2.5421   -1.8592    0.2928 C   0  0  0  0  0  0  0  0  0  0  0  0
   -3.5134   -0.9357   -0.0788 C   0  0  0  0  0  0  0  0  0  0  0  0
   -3.1381    0.3505   -0.4803 C   0  0  0  0  0  0  0  0  0  0  0  0
   -4.1724    1.3661   -0.9010 C   0  0  0  0  0  0  0  0  0  0  0  0
   -5.4399    1.0270   -0.5293 F   0  0  0  0  0  0  0  0  0  0  0  0
   -4.2156    1.5379   -2.2504 F   0  0  0  0  0  0  0  0  0  0  0  0
   -3.9517    2.5998   -0.3685 F   0  0  0  0  0  0  0  0  0  0  0  0
   -1.7700    0.6872   -0.5131 C   0  0  0  0  0  0  0  0  0  0  0  0
  1  2  2  0
  2  3  1  0
  3  4  1  6
  3  5  1  0
  5  6  1  6
  6  7  1  0
  5  8  1  0
  8  9  1  0
  9 10  1  0
 10 11  2  0
 11 12  1  0
 12 13  2  0
 13 14  1  0
 14 15  1  0
 15 16  1  0
 15 17  1  0
 15 18  1  0
 14 19  2  0
  9  2  1  0
 19 10  1  0
M  END
