
     RDKit          3D

 20 21  0  0  0  0  0  0  0  0999 V2000
   -2.7025    0.8421    0.8103 C   0  0  0  0  0  0  0  0  0  0  0  0
   -2.6033   -0.2601   -0.2536 C   0  0  0  0  0  0  0  0  0  0  0  0
   -2.6443   -1.6317    0.4493 C   0  0  0  0  0  0  0  0  0  0  0  0
   -3.8927   -0.1684   -1.1144 C   0  0  0  0  0  0  0  0  0  0  0  0
   -1.3636   -0.0782   -1.2018 C   0  0  2  0  0  0  0  0  0  0  0  0
   -1.2799   -1.2147   -2.0893 O   0  0  0  0  0  0  0  0  0  0  0  0
    0.0798    0.1406   -0.6549 C   0  0  2  0  0  0  0  0  0  0  0  0
    0.5172   -0.7992    0.4814 C   0  0  0  0  0  0  0  0  0  0  0  0
    2.0232   -0.8764    0.6412 C   0  0  0  0  0  0  0  0  0  0  0  0
    2.6838   -0.0612    1.5705 C   0  0  0  0  0  0  0  0  0  0  0  0
    4.0729   -0.1190    1.7006 C   0  0  0  0  0  0  0  0  0  0  0  0
    4.8072   -0.9927    0.9024 C   0  0  0  0  0  0  0  0  0  0  0  0
    6.5189   -1.0644    1.0624 Cl  0  0  0  0  0  0  0  0  0  0  0  0
    4.1646   -1.8083   -0.0264 C   0  0  0  0  0  0  0  0  0  0  0  0
    2.7756   -1.7496   -0.1582 C   0  0  0  0  0  0  0  0  0  0  0  0
    0.3693    1.5470   -0.4065 N   0  0  0  0  0  0  0  0  0  0  0  0
    0.9398    2.4280   -1.2778 C   0  0  0  0  0  0  0  0  0  0  0  0
    1.0390    3.6081   -0.7121 N   0  0  0  0  0  0  0  0  0  0  0  0
    0.5291    3.3925    0.5342 C   0  0  0  0  0  0  0  0  0  0  0  0
    0.1068    2.1477    0.7694 N   0  0  0  0  0  0  0  0  0  0  0  0
  1  2  1  0
  2  3  1  0
  2  4  1  0
  2  5  1  0
  5  6  1  1
  5  7  1  0
  7  8  1  1
  8  9  1  0
  9 10  2  0
 10 11  1  0
 11 12  2  0
 12 13  1  0
 12 14  1  0
 14 15  2  0
  7 16  1  0
 16 17  1  0
 17 18  2  0
 18 19  1  0
 19 20  2  0
 15  9  1  0
 20 16  1  0
M  END
