
     RDKit          3D

 20 21  0  0  0  0  0  0  0  0999 V2000
   -3.8288   -2.0302   -0.3724 C   0  0  0  0  0  0  0  0  0  0  0  0
   -2.5571   -1.4898    0.2686 C   0  0  0  0  0  0  0  0  0  0  0  0
   -2.4339   -0.0340    0.1323 N   0  0  0  0  0  0  0  0  0  0  0  0
   -3.3073    0.7845    0.9805 C   0  0  0  0  0  0  0  0  0  0  0  0
   -2.6700    1.0894    2.3291 C   0  0  0  0  0  0  0  0  0  0  0  0
   -1.4445    0.6423   -0.5932 C   0  0  0  0  0  0  0  0  0  0  0  0
   -1.3934    1.8777   -0.5784 O   0  0  0  0  0  0  0  0  0  0  0  0
   -0.4235   -0.1729   -1.4220 C   0  0  1  0  0  0  0  0  0  0  0  0
   -1.0683   -0.6173   -2.7307 C   0  0  0  0  0  0  0  0  0  0  0  0
    0.7096    0.6495   -1.7655 O   0  0  0  0  0  0  0  0  0  0  0  0
    1.8768    0.1433   -1.2434 C   0  0  0  0  0  0  0  0  0  0  0  0
    2.5000   -0.9114   -1.9165 C   0  0  0  0  0  0  0  0  0  0  0  0
    3.6785   -1.4518   -1.4137 C   0  0  0  0  0  0  0  0  0  0  0  0
    4.2405   -0.9298   -0.2479 C   0  0  0  0  0  0  0  0  0  0  0  0
    3.6423    0.1505    0.4232 C   0  0  0  0  0  0  0  0  0  0  0  0
    4.2207    0.6833    1.5876 C   0  0  0  0  0  0  0  0  0  0  0  0
    3.6378    1.7662    2.2472 C   0  0  0  0  0  0  0  0  0  0  0  0
    2.4718    2.3345    1.7482 C   0  0  0  0  0  0  0  0  0  0  0  0
    1.8835    1.8149    0.5938 C   0  0  0  0  0  0  0  0  0  0  0  0
    2.4463    0.7132   -0.0837 C   0  0  0  0  0  0  0  0  0  0  0  0
  1  2  1  0
  2  3  1  0
  3  4  1  0
  4  5  1  0
  3  6  1  0
  6  7  2  0
  6  8  1  0
  8  9  1  6
  8 10  1  0
 10 11  1  0
 11 12  2  0
 12 13  1  0
 13 14  2  0
 14 15  1  0
 15 16  2  0
 16 17  1  0
 17 18  2  0
 18 19  1  0
 19 20  2  0
 20 11  1  0
 20 15  1  0
M  END
