
     RDKit          3D

 21 22  0  0  0  0  0  0  0  0999 V2000
   -2.6710   -1.9588    0.4942 C   0  0  0  0  0  0  0  0  0  0  0  0
   -2.0113   -0.5744    0.7103 C   0  0  0  0  0  0  0  0  0  0  0  0
   -1.4503   -0.5369    2.1432 C   0  0  0  0  0  0  0  0  0  0  0  0
   -3.1268    0.4783    0.5850 C   0  0  0  0  0  0  0  0  0  0  0  0
   -0.8659   -0.4092   -0.3467 C   0  0  1  0  0  0  0  0  0  0  0  0
   -1.4130   -0.4570   -1.6701 O   0  0  0  0  0  0  0  0  0  0  0  0
    0.1228    0.7841   -0.1880 C   0  0  1  0  0  0  0  0  0  0  0  0
    1.3300    0.6878   -1.1552 C   0  0  0  0  0  0  0  0  0  0  0  0
    2.3490   -0.3621   -0.7526 C   0  0  0  0  0  0  0  0  0  0  0  0
    3.1736   -0.0992    0.3582 C   0  0  0  0  0  0  0  0  0  0  0  0
    4.1218   -1.0312    0.7841 C   0  0  0  0  0  0  0  0  0  0  0  0
    4.2605   -2.2362    0.1029 C   0  0  0  0  0  0  0  0  0  0  0  0
    5.4275   -3.3845    0.6301 Cl  0  0  0  0  0  0  0  0  0  0  0  0
    3.4637   -2.5160   -1.0024 C   0  0  0  0  0  0  0  0  0  0  0  0
    2.5142   -1.5832   -1.4311 C   0  0  0  0  0  0  0  0  0  0  0  0
    1.5738   -2.0030   -2.8164 Cl  0  0  0  0  0  0  0  0  0  0  0  0
   -0.5117    2.0834   -0.3698 N   0  0  0  0  0  0  0  0  0  0  0  0
   -0.4264    3.1711    0.4431 C   0  0  0  0  0  0  0  0  0  0  0  0
   -1.0950    4.1674   -0.0888 N   0  0  0  0  0  0  0  0  0  0  0  0
   -1.5731    3.6349   -1.2520 C   0  0  0  0  0  0  0  0  0  0  0  0
   -1.2412    2.3587   -1.4708 N   0  0  0  0  0  0  0  0  0  0  0  0
  1  2  1  0
  2  3  1  0
  2  4  1  0
  2  5  1  0
  5  6  1  6
  5  7  1  0
  7  8  1  6
  8  9  1  0
  9 10  2  0
 10 11  1  0
 11 12  2  0
 12 13  1  0
 12 14  1  0
 14 15  2  0
 15 16  1  0
  7 17  1  0
 17 18  1  0
 18 19  2  0
 19 20  1  0
 20 21  2  0
 15  9  1  0
 21 17  1  0
M  END
