
     RDKit          3D

 24 26  0  0  0  0  0  0  0  0999 V2000
    6.1104    0.4591    0.8307 C   0  0  0  0  0  0  0  0  0  0  0  0
    5.4785   -0.4499   -0.1865 C   0  0  0  0  0  0  0  0  0  0  0  0
    6.3257   -0.7259   -1.4007 C   0  0  0  0  0  0  0  0  0  0  0  0
    4.2474   -0.9874   -0.0550 C   0  0  0  0  0  0  0  0  0  0  0  0
    3.3128   -0.8064    1.0657 C   0  0  2  0  0  0  0  0  0  0  0  0
    1.8093   -0.8002    0.8956 C   0  0  2  0  0  0  0  0  0  0  0  0
    1.0671   -0.9065   -0.3831 C   0  0  0  0  0  0  0  0  0  0  0  0
    1.5425   -1.3476   -1.4206 O   0  0  0  0  0  0  0  0  0  0  0  0
   -0.2039   -0.4506   -0.2285 O   0  0  0  0  0  0  0  0  0  0  0  0
   -0.9675   -0.5388   -1.4291 C   0  0  0  0  0  0  0  0  0  0  0  0
   -2.3216   -0.1727   -1.1132 N   0  0  0  0  0  0  0  0  0  0  0  0
   -3.2399   -1.0282   -0.5933 C   0  0  0  0  0  0  0  0  0  0  0  0
   -3.1252   -2.2120   -0.3340 O   0  0  0  0  0  0  0  0  0  0  0  0
   -4.4625   -0.2475   -0.3884 C   0  0  0  0  0  0  0  0  0  0  0  0
   -4.2245    1.0047   -0.7890 C   0  0  0  0  0  0  0  0  0  0  0  0
   -5.2042    2.1159   -0.7424 C   0  0  0  0  0  0  0  0  0  0  0  0
   -6.4253    1.7285    0.1146 C   0  0  0  0  0  0  0  0  0  0  0  0
   -6.8779    0.2759   -0.1264 C   0  0  0  0  0  0  0  0  0  0  0  0
   -5.7554   -0.7427    0.1423 C   0  0  0  0  0  0  0  0  0  0  0  0
   -2.8354    1.0763   -1.2505 C   0  0  0  0  0  0  0  0  0  0  0  0
   -2.3003    2.0847   -1.6718 O   0  0  0  0  0  0  0  0  0  0  0  0
    2.5420    0.4947    1.2379 C   0  0  0  0  0  0  0  0  0  0  0  0
    2.6357    1.5860    0.1922 C   0  0  0  0  0  0  0  0  0  0  0  0
    2.3894    1.0306    2.6412 C   0  0  0  0  0  0  0  0  0  0  0  0
  1  2  1  0
  2  3  1  0
  2  4  2  3
  5  4  1  6
  5  6  1  0
  6  7  1  6
  7  8  2  0
  7  9  1  0
  9 10  1  0
 10 11  1  0
 11 12  1  0
 12 13  2  0
 12 14  1  0
 14 15  2  0
 15 16  1  0
 16 17  1  0
 17 18  1  0
 18 19  1  0
 15 20  1  0
 20 21  2  0
  6 22  1  0
 22 23  1  0
 22 24  1  0
 22  5  1  0
 20 11  1  0
 19 14  1  0
M  END
