
     RDKit          3D

 24 25  0  0  0  0  0  0  0  0999 V2000
   -3.4461    1.7384   -1.7797 C   0  0  0  0  0  0  0  0  0  0  0  0
   -3.5254    0.9512   -0.4679 C   0  0  0  0  0  0  0  0  0  0  0  0
   -3.9493    1.8856    0.6640 C   0  0  0  0  0  0  0  0  0  0  0  0
   -2.1764    0.2471   -0.2022 C   0  0  0  0  0  0  0  0  0  0  0  0
   -2.1726   -0.6793    1.0375 C   0  0  2  0  0  0  0  0  0  0  0  0
   -1.5447   -0.0067    2.2657 C   0  0  0  0  0  0  0  0  0  0  0  0
   -1.4681   -1.9992    0.7465 C   0  0  0  0  0  0  0  0  0  0  0  0
   -2.3680   -3.4501    0.9876 S   0  0  0  0  0  0  0  0  0  0  0  0
   -1.0573   -4.4255    0.5188 C   0  0  0  0  0  0  0  0  0  0  0  0
    0.0449   -3.6759    0.1809 C   0  0  0  0  0  0  0  0  0  0  0  0
   -0.1756   -2.2689    0.3060 C   0  0  0  0  0  0  0  0  0  0  0  0
    0.7418   -1.2559    0.0350 N   0  0  0  0  0  0  0  0  0  0  0  0
    2.0375   -1.4288   -0.4124 C   0  0  0  0  0  0  0  0  0  0  0  0
    2.5752   -2.5040   -0.6403 O   0  0  0  0  0  0  0  0  0  0  0  0
    2.7763   -0.1827   -0.6137 C   0  0  0  0  0  0  0  0  0  0  0  0
    2.3847    1.1210   -0.3572 C   0  0  0  0  0  0  0  0  0  0  0  0
    3.4332    1.9174   -0.7101 N   0  0  0  0  0  0  0  0  0  0  0  0
    3.5030    3.3570   -0.6193 C   0  0  0  0  0  0  0  0  0  0  0  0
    4.4857    1.2391   -1.1821 N   0  0  0  0  0  0  0  0  0  0  0  0
    4.1079   -0.0566   -1.1315 C   0  0  0  0  0  0  0  0  0  0  0  0
    5.0125   -1.1832   -1.5781 C   0  0  0  0  0  0  0  0  0  0  0  0
    4.4599   -1.9198   -2.5788 F   0  0  0  0  0  0  0  0  0  0  0  0
    6.2074   -0.7364   -2.0604 F   0  0  0  0  0  0  0  0  0  0  0  0
    5.3155   -2.0333   -0.5612 F   0  0  0  0  0  0  0  0  0  0  0  0
  1  2  1  0
  2  3  1  0
  2  4  1  0
  4  5  1  0
  5  6  1  1
  5  7  1  0
  7  8  1  0
  8  9  1  0
  9 10  2  0
 10 11  1  0
 11 12  1  0
 12 13  1  0
 13 14  2  0
 13 15  1  0
 15 16  2  0
 16 17  1  0
 17 18  1  0
 17 19  1  0
 19 20  2  0
 20 21  1  0
 21 22  1  0
 21 23  1  0
 21 24  1  0
 11  7  2  0
 20 15  1  0
M  END
