
     RDKit          3D

 19 20  0  0  0  0  0  0  0  0999 V2000
   -1.8994    2.1151   -1.1765 O   0  0  0  0  0  0  0  0  0  0  0  0
   -1.8879    0.9476   -0.8158 C   0  0  0  0  0  0  0  0  0  0  0  0
   -3.1199    0.0565   -0.8210 C   0  0  1  0  0  0  0  0  0  0  0  0
   -3.3637   -0.5351   -2.4865 Cl  0  0  0  0  0  0  0  0  0  0  0  0
   -2.7328   -1.0813    0.1213 C   0  0  2  0  0  0  0  0  0  0  0  0
   -3.0444   -0.7504    1.5853 C   0  0  0  0  0  0  0  0  0  0  0  0
   -4.7998   -0.7331    1.8797 Cl  0  0  0  0  0  0  0  0  0  0  0  0
   -1.2258   -1.1821   -0.0867 C   0  0  0  0  0  0  0  0  0  0  0  0
   -0.8015    0.1730   -0.3603 N   0  0  0  0  0  0  0  0  0  0  0  0
    0.5595    0.5831   -0.2974 C   0  0  0  0  0  0  0  0  0  0  0  0
    0.9395    1.9174   -0.4839 C   0  0  0  0  0  0  0  0  0  0  0  0
    2.2810    2.3098   -0.4161 C   0  0  0  0  0  0  0  0  0  0  0  0
    3.2745    1.3719   -0.1570 C   0  0  0  0  0  0  0  0  0  0  0  0
    2.9328    0.0310    0.0418 C   0  0  0  0  0  0  0  0  0  0  0  0
    3.9983   -1.0058    0.2971 C   0  0  0  0  0  0  0  0  0  0  0  0
    3.5778   -1.9974    1.1328 F   0  0  0  0  0  0  0  0  0  0  0  0
    5.1249   -0.4948    0.8660 F   0  0  0  0  0  0  0  0  0  0  0  0
    4.4005   -1.6272   -0.8448 F   0  0  0  0  0  0  0  0  0  0  0  0
    1.5779   -0.3498   -0.0384 C   0  0  0  0  0  0  0  0  0  0  0  0
  1  2  2  0
  2  3  1  0
  3  4  1  6
  3  5  1  0
  5  6  1  1
  6  7  1  0
  5  8  1  0
  8  9  1  0
  9 10  1  0
 10 11  2  0
 11 12  1  0
 12 13  2  0
 13 14  1  0
 14 15  1  0
 15 16  1  0
 15 17  1  0
 15 18  1  0
 14 19  2  0
  9  2  1  0
 19 10  1  0
M  END
