
     RDKit          3D

 24 25  0  0  0  0  0  0  0  0999 V2000
   -1.9713    4.8276    0.5502 C   0  0  0  0  0  0  0  0  0  0  0  0
   -1.9486    3.6576   -0.2679 O   0  0  0  0  0  0  0  0  0  0  0  0
   -1.7180    2.5015    0.4252 C   0  0  0  0  0  0  0  0  0  0  0  0
   -1.6165    2.4327    1.6450 O   0  0  0  0  0  0  0  0  0  0  0  0
   -1.6757    1.3096   -0.5460 C   0  0  2  0  0  0  0  0  0  0  0  0
   -3.1229    0.8799   -0.8077 C   0  0  0  0  0  0  0  0  0  0  0  0
   -0.7590    0.2793   -0.0041 N   0  0  0  0  0  0  0  0  0  0  0  0
    0.6095    0.5920   -0.0116 C   0  0  0  0  0  0  0  0  0  0  0  0
    1.0010    1.6888   -0.4216 O   0  0  0  0  0  0  0  0  0  0  0  0
    1.5680   -0.4346    0.6010 C   0  0  0  0  0  0  0  0  0  0  0  0
    3.0038   -0.2924    0.1448 C   0  0  0  0  0  0  0  0  0  0  0  0
    3.5465   -1.1896   -0.7864 C   0  0  0  0  0  0  0  0  0  0  0  0
    4.8724   -1.0611   -1.2029 C   0  0  0  0  0  0  0  0  0  0  0  0
    5.6674   -0.0347   -0.6965 C   0  0  0  0  0  0  0  0  0  0  0  0
    5.1369    0.8667    0.2245 C   0  0  0  0  0  0  0  0  0  0  0  0
    3.8125    0.7381    0.6449 C   0  0  0  0  0  0  0  0  0  0  0  0
   -1.2088   -1.0643    0.0779 C   0  0  0  0  0  0  0  0  0  0  0  0
   -1.1135   -1.9199   -1.0438 C   0  0  0  0  0  0  0  0  0  0  0  0
   -0.5083   -1.4841   -2.3512 C   0  0  0  0  0  0  0  0  0  0  0  0
   -1.5548   -3.2461   -0.9237 C   0  0  0  0  0  0  0  0  0  0  0  0
   -2.1012   -3.7093    0.2702 C   0  0  0  0  0  0  0  0  0  0  0  0
   -2.1970   -2.8603    1.3700 C   0  0  0  0  0  0  0  0  0  0  0  0
   -1.7403   -1.5366    1.2960 C   0  0  0  0  0  0  0  0  0  0  0  0
   -1.8607   -0.6613    2.5133 C   0  0  0  0  0  0  0  0  0  0  0  0
  1  2  1  0
  2  3  1  0
  3  4  2  0
  3  5  1  0
  5  6  1  1
  5  7  1  0
  7  8  1  0
  8  9  2  0
  8 10  1  0
 10 11  1  0
 11 12  2  0
 12 13  1  0
 13 14  2  0
 14 15  1  0
 15 16  2  0
  7 17  1  0
 17 18  2  0
 18 19  1  0
 18 20  1  0
 20 21  2  0
 21 22  1  0
 22 23  2  0
 23 24  1  0
 16 11  1  0
 23 17  1  0
M  END
