
     RDKit          3D

 24 26  0  0  0  0  0  0  0  0999 V2000
    5.3050    1.7542    0.0856 C   0  0  0  0  0  0  0  0  0  0  0  0
    5.4884    0.3928    0.7004 C   0  0  0  0  0  0  0  0  0  0  0  0
    6.9113   -0.0925    0.7474 C   0  0  0  0  0  0  0  0  0  0  0  0
    4.4749   -0.3539    1.1794 C   0  0  0  0  0  0  0  0  0  0  0  0
    3.0490    0.0017    1.1998 C   0  0  2  0  0  0  0  0  0  0  0  0
    2.0063   -1.0898    1.0756 C   0  0  1  0  0  0  0  0  0  0  0  0
    0.8028   -1.0612    1.9373 C   0  0  0  0  0  0  0  0  0  0  0  0
    0.8713   -1.0402    3.1550 O   0  0  0  0  0  0  0  0  0  0  0  0
   -0.3309   -1.0886    1.2091 O   0  0  0  0  0  0  0  0  0  0  0  0
   -1.5164   -1.0416    1.9984 C   0  0  0  0  0  0  0  0  0  0  0  0
   -2.6081   -0.7481    1.1129 N   0  0  0  0  0  0  0  0  0  0  0  0
   -3.0377    0.5035    0.8230 C   0  0  0  0  0  0  0  0  0  0  0  0
   -2.6544    1.5617    1.2743 O   0  0  0  0  0  0  0  0  0  0  0  0
   -4.0903    0.3589   -0.1835 C   0  0  0  0  0  0  0  0  0  0  0  0
   -4.2223   -0.9412   -0.4560 C   0  0  0  0  0  0  0  0  0  0  0  0
   -5.1636   -1.5157   -1.4439 C   0  0  0  0  0  0  0  0  0  0  0  0
   -6.1598   -0.4480   -1.9376 C   0  0  0  0  0  0  0  0  0  0  0  0
   -5.5070    0.9276   -2.1357 C   0  0  0  0  0  0  0  0  0  0  0  0
   -4.8395    1.4470   -0.8518 C   0  0  0  0  0  0  0  0  0  0  0  0
   -3.2648   -1.6777    0.3729 C   0  0  0  0  0  0  0  0  0  0  0  0
   -3.1198   -2.8879    0.3540 O   0  0  0  0  0  0  0  0  0  0  0  0
    2.2097   -0.1008   -0.0651 C   0  0  0  0  0  0  0  0  0  0  0  0
    1.2163    1.0144   -0.3019 C   0  0  0  0  0  0  0  0  0  0  0  0
    2.7852   -0.6627   -1.3432 C   0  0  0  0  0  0  0  0  0  0  0  0
  1  2  1  0
  2  3  1  0
  2  4  2  3
  5  4  1  6
  5  6  1  0
  6  7  1  1
  7  8  2  0
  7  9  1  0
  9 10  1  0
 10 11  1  0
 11 12  1  0
 12 13  2  0
 12 14  1  0
 14 15  2  0
 15 16  1  0
 16 17  1  0
 17 18  1  0
 18 19  1  0
 15 20  1  0
 20 21  2  0
  6 22  1  0
 22 23  1  0
 22 24  1  0
 22  5  1  0
 20 11  1  0
 19 14  1  0
M  END
