
     RDKit          3D

 18 18  0  0  0  0  0  0  0  0999 V2000
    4.2325   -2.2829   -1.3236 C   0  0  0  0  0  0  0  0  0  0  0  0
    4.0563   -1.9766    0.1577 C   0  0  0  0  0  0  0  0  0  0  0  0
    2.6629   -1.4672    0.5198 C   0  0  0  0  0  0  0  0  0  0  0  0
    2.3233    0.1810   -0.1572 S   0  0  0  0  0  0  0  0  0  0  0  0
    0.3577    0.5283    0.4540 P   0  0  1  0  0  5  0  0  0  0  0  0
    0.2633    0.4908    1.9545 O   0  0  0  0  0  0  0  0  0  0  0  0
   -0.1681    1.9307   -0.1616 O   0  0  0  0  0  0  0  0  0  0  0  0
    0.3213    3.1205    0.4322 C   0  0  0  0  0  0  0  0  0  0  0  0
   -0.2362    4.3051   -0.3293 C   0  0  0  0  0  0  0  0  0  0  0  0
   -0.6044   -0.5444   -0.2679 O   0  0  0  0  0  0  0  0  0  0  0  0
   -1.9606   -0.6422   -0.1210 C   0  0  0  0  0  0  0  0  0  0  0  0
   -2.6939    0.1477    0.7659 C   0  0  0  0  0  0  0  0  0  0  0  0
   -4.0802   -0.0082    0.8627 C   0  0  0  0  0  0  0  0  0  0  0  0
   -4.7318   -0.9545    0.0739 C   0  0  0  0  0  0  0  0  0  0  0  0
   -6.6057   -1.1585    0.2109 Br  0  0  0  0  0  0  0  0  0  0  0  0
   -4.0127   -1.7512   -0.8122 C   0  0  0  0  0  0  0  0  0  0  0  0
   -2.6287   -1.5934   -0.9061 C   0  0  0  0  0  0  0  0  0  0  0  0
   -1.7650   -2.6017   -2.0139 Cl  0  0  0  0  0  0  0  0  0  0  0  0
  1  2  1  0
  2  3  1  0
  3  4  1  0
  4  5  1  0
  5  6  2  0
  5  7  1  6
  7  8  1  0
  8  9  1  0
  5 10  1  0
 10 11  1  0
 11 12  2  0
 12 13  1  0
 13 14  2  0
 14 15  1  0
 14 16  1  0
 16 17  2  0
 17 18  1  0
 17 11  1  0
M  END
