
     RDKit          3D

 19 20  0  0  0  0  0  0  0  0999 V2000
   -0.4172    0.3650    2.4706 O   0  0  0  0  0  0  0  0  0  0  0  0
   -1.0646    0.1685    1.4526 C   0  0  0  0  0  0  0  0  0  0  0  0
   -2.5839    0.1475    1.4206 C   0  0  1  0  0  0  0  0  0  0  0  0
   -3.1541    1.8337    1.4433 Cl  0  0  0  0  0  0  0  0  0  0  0  0
   -2.8798   -0.6004    0.1223 C   0  0  1  0  0  0  0  0  0  0  0  0
   -4.2506   -0.3470   -0.4855 C   0  0  0  0  0  0  0  0  0  0  0  0
   -4.5169   -1.3969   -1.9015 Cl  0  0  0  0  0  0  0  0  0  0  0  0
   -1.7181   -0.1946   -0.7742 C   0  0  0  0  0  0  0  0  0  0  0  0
   -0.6048   -0.0303    0.1364 N   0  0  0  0  0  0  0  0  0  0  0  0
    0.7456    0.0341   -0.3078 C   0  0  0  0  0  0  0  0  0  0  0  0
    1.0486    0.0115   -1.6785 C   0  0  0  0  0  0  0  0  0  0  0  0
    2.3692    0.0761   -2.1346 C   0  0  0  0  0  0  0  0  0  0  0  0
    3.4188    0.1622   -1.2263 C   0  0  0  0  0  0  0  0  0  0  0  0
    3.1551    0.1796    0.1473 C   0  0  0  0  0  0  0  0  0  0  0  0
    4.2755    0.2856    1.1527 C   0  0  0  0  0  0  0  0  0  0  0  0
    4.1386   -0.5827    2.1928 F   0  0  0  0  0  0  0  0  0  0  0  0
    5.5035    0.0282    0.6184 F   0  0  0  0  0  0  0  0  0  0  0  0
    4.3646    1.5265    1.7049 F   0  0  0  0  0  0  0  0  0  0  0  0
    1.8184    0.1210    0.5901 C   0  0  0  0  0  0  0  0  0  0  0  0
  1  2  2  0
  2  3  1  0
  3  4  1  6
  3  5  1  0
  5  6  1  6
  6  7  1  0
  5  8  1  0
  8  9  1  0
  9 10  1  0
 10 11  2  0
 11 12  1  0
 12 13  2  0
 13 14  1  0
 14 15  1  0
 15 16  1  0
 15 17  1  0
 15 18  1  0
 14 19  2  0
  9  2  1  0
 19 10  1  0
M  END
