
     RDKit          3D

 25 27  0  0  0  0  0  0  0  0999 V2000
   -5.5513    0.1872    0.1344 C   0  0  0  0  0  0  0  0  0  0  0  0
   -4.2715   -0.4502   -0.4615 C   0  0  0  0  0  0  0  0  0  0  0  0
   -4.5667   -0.7533   -1.9405 C   0  0  0  0  0  0  0  0  0  0  0  0
   -4.0178   -1.7756    0.2798 C   0  0  0  0  0  0  0  0  0  0  0  0
   -3.0763    0.5444   -0.2854 C   0  0  1  0  0  0  0  0  0  0  0  0
   -3.0463    0.9490    1.1062 O   0  0  0  0  0  0  0  0  0  0  0  0
   -1.6465    0.0602   -0.6693 C   0  0  2  0  0  0  0  0  0  0  0  0
   -0.7547    1.1302   -0.2615 O   0  0  0  0  0  0  0  0  0  0  0  0
    0.5238    0.8236    0.1101 C   0  0  0  0  0  0  0  0  0  0  0  0
    1.1737   -0.3931   -0.0781 C   0  0  0  0  0  0  0  0  0  0  0  0
    2.4972   -0.5583    0.3531 C   0  0  0  0  0  0  0  0  0  0  0  0
    3.2007    0.4855    0.9736 C   0  0  0  0  0  0  0  0  0  0  0  0
    4.5905    0.3043    1.4233 C   0  0  0  0  0  0  0  0  0  0  0  0
    4.9434   -0.7556    2.2754 C   0  0  0  0  0  0  0  0  0  0  0  0
    6.2625   -0.9281    2.7036 C   0  0  0  0  0  0  0  0  0  0  0  0
    7.2527   -0.0429    2.2853 C   0  0  0  0  0  0  0  0  0  0  0  0
    6.9250    1.0139    1.4401 C   0  0  0  0  0  0  0  0  0  0  0  0
    5.6051    1.1857    1.0137 C   0  0  0  0  0  0  0  0  0  0  0  0
    2.5362    1.7077    1.1451 C   0  0  0  0  0  0  0  0  0  0  0  0
    1.2156    1.8741    0.7158 C   0  0  0  0  0  0  0  0  0  0  0  0
   -1.4579   -0.1626   -2.0890 N   0  0  0  0  0  0  0  0  0  0  0  0
   -1.4619    0.7620   -3.0894 C   0  0  0  0  0  0  0  0  0  0  0  0
   -1.2317    0.1694   -4.2379 N   0  0  0  0  0  0  0  0  0  0  0  0
   -1.0522   -1.1358   -3.8810 C   0  0  0  0  0  0  0  0  0  0  0  0
   -1.1760   -1.3920   -2.5756 N   0  0  0  0  0  0  0  0  0  0  0  0
  1  2  1  0
  2  3  1  0
  2  4  1  0
  2  5  1  0
  5  6  1  1
  5  7  1  0
  7  8  1  6
  8  9  1  0
  9 10  2  0
 10 11  1  0
 11 12  2  0
 12 13  1  0
 13 14  2  0
 14 15  1  0
 15 16  2  0
 16 17  1  0
 17 18  2  0
 12 19  1  0
 19 20  2  0
  7 21  1  0
 21 22  1  0
 22 23  2  0
 23 24  1  0
 24 25  2  0
 20  9  1  0
 25 21  1  0
 18 13  1  0
M  END
