
     RDKit          3D

 27 29  0  0  0  0  0  0  0  0999 V2000
   -2.2943    1.7256    0.6202 C   0  0  0  0  0  0  0  0  0  0  0  0
   -2.2761    0.2565    0.1683 C   0  0  1  0  0  0  0  0  0  0  0  0
   -3.0850   -0.5425    1.0359 O   0  0  0  0  0  0  0  0  0  0  0  0
   -2.8783    0.0811   -1.2515 C   0  0  0  0  0  0  0  0  0  0  0  0
   -4.2717    0.4667   -1.3466 N   0  0  0  0  0  0  0  0  0  0  0  0
   -5.3695   -0.3003   -1.1116 C   0  0  0  0  0  0  0  0  0  0  0  0
   -6.4525    0.4099   -1.3284 N   0  0  0  0  0  0  0  0  0  0  0  0
   -5.9540    1.6206   -1.7169 C   0  0  0  0  0  0  0  0  0  0  0  0
   -4.6208    1.7052   -1.7431 N   0  0  0  0  0  0  0  0  0  0  0  0
   -0.8255   -0.2687    0.2656 C   0  0  0  0  0  0  0  0  0  0  0  0
    0.0493   -0.0725   -0.8305 C   0  0  0  0  0  0  0  0  0  0  0  0
    1.3686   -0.5325   -0.8204 C   0  0  0  0  0  0  0  0  0  0  0  0
    1.8642   -1.1793    0.3023 C   0  0  0  0  0  0  0  0  0  0  0  0
    3.1357   -1.6981    0.3700 O   0  0  0  0  0  0  0  0  0  0  0  0
    4.1691   -0.8943   -0.0535 C   0  0  0  0  0  0  0  0  0  0  0  0
    5.1137   -1.4703   -0.9046 C   0  0  0  0  0  0  0  0  0  0  0  0
    6.2046   -0.7175   -1.3434 C   0  0  0  0  0  0  0  0  0  0  0  0
    6.3519    0.6016   -0.9147 C   0  0  0  0  0  0  0  0  0  0  0  0
    7.6958    1.5297   -1.4556 Cl  0  0  0  0  0  0  0  0  0  0  0  0
    5.4221    1.1723   -0.0453 C   0  0  0  0  0  0  0  0  0  0  0  0
    4.3305    0.4202    0.3942 C   0  0  0  0  0  0  0  0  0  0  0  0
    1.0379   -1.3791    1.4034 C   0  0  0  0  0  0  0  0  0  0  0  0
   -0.2965   -0.9075    1.4248 C   0  0  0  0  0  0  0  0  0  0  0  0
   -1.0695   -1.1333    2.7167 C   0  0  0  0  0  0  0  0  0  0  0  0
   -1.8094   -0.0597    3.1178 F   0  0  0  0  0  0  0  0  0  0  0  0
   -0.2413   -1.3831    3.7785 F   0  0  0  0  0  0  0  0  0  0  0  0
   -1.9065   -2.2052    2.6700 F   0  0  0  0  0  0  0  0  0  0  0  0
  2  1  1  1
  2  3  1  0
  2  4  1  0
  4  5  1  0
  5  6  1  0
  6  7  2  0
  7  8  1  0
  8  9  2  0
  2 10  1  0
 10 11  2  0
 11 12  1  0
 12 13  2  0
 13 14  1  0
 14 15  1  0
 15 16  2  0
 16 17  1  0
 17 18  2  0
 18 19  1  0
 18 20  1  0
 20 21  2  0
 13 22  1  0
 22 23  2  0
 23 24  1  0
 24 25  1  0
 24 26  1  0
 24 27  1  0
  9  5  1  0
 23 10  1  0
 21 15  1  0
M  END
