
     RDKit          3D

 25 27  0  0  0  0  0  0  0  0999 V2000
   -4.7130   -1.2564   -2.5023 C   0  0  0  0  0  0  0  0  0  0  0  0
   -4.0209   -0.6713   -1.2461 C   0  0  0  0  0  0  0  0  0  0  0  0
   -4.8662   -1.0895   -0.0309 C   0  0  0  0  0  0  0  0  0  0  0  0
   -4.0452    0.8634   -1.3682 C   0  0  0  0  0  0  0  0  0  0  0  0
   -2.5568   -1.2183   -1.1687 C   0  0  1  0  0  0  0  0  0  0  0  0
   -1.9338   -0.9827   -2.4561 O   0  0  0  0  0  0  0  0  0  0  0  0
   -1.6095   -0.6475   -0.0718 C   0  0  2  0  0  0  0  0  0  0  0  0
   -0.3076   -1.2267   -0.3478 O   0  0  0  0  0  0  0  0  0  0  0  0
    0.8162   -0.5312   -0.0013 C   0  0  0  0  0  0  0  0  0  0  0  0
    0.8762    0.6001    0.8077 C   0  0  0  0  0  0  0  0  0  0  0  0
    2.1110    1.2034    1.0838 C   0  0  0  0  0  0  0  0  0  0  0  0
    3.3091    0.6907    0.5633 C   0  0  0  0  0  0  0  0  0  0  0  0
    4.6021    1.3292    0.8582 C   0  0  0  0  0  0  0  0  0  0  0  0
    5.0030    1.5751    2.1822 C   0  0  0  0  0  0  0  0  0  0  0  0
    6.2309    2.1808    2.4631 C   0  0  0  0  0  0  0  0  0  0  0  0
    7.0792    2.5522    1.4233 C   0  0  0  0  0  0  0  0  0  0  0  0
    6.7013    2.3181    0.1038 C   0  0  0  0  0  0  0  0  0  0  0  0
    5.4737    1.7113   -0.1755 C   0  0  0  0  0  0  0  0  0  0  0  0
    3.2327   -0.4539   -0.2421 C   0  0  0  0  0  0  0  0  0  0  0  0
    2.0018   -1.0585   -0.5166 C   0  0  0  0  0  0  0  0  0  0  0  0
   -1.9834   -1.0102    1.2808 N   0  0  0  0  0  0  0  0  0  0  0  0
   -1.9697   -2.2478    1.8499 C   0  0  0  0  0  0  0  0  0  0  0  0
   -2.3562   -2.1615    3.1014 N   0  0  0  0  0  0  0  0  0  0  0  0
   -2.5639   -0.8229    3.2686 C   0  0  0  0  0  0  0  0  0  0  0  0
   -2.3449   -0.0725    2.1851 N   0  0  0  0  0  0  0  0  0  0  0  0
  1  2  1  0
  2  3  1  0
  2  4  1  0
  2  5  1  0
  5  6  1  6
  5  7  1  0
  7  8  1  6
  8  9  1  0
  9 10  2  0
 10 11  1  0
 11 12  2  0
 12 13  1  0
 13 14  2  0
 14 15  1  0
 15 16  2  0
 16 17  1  0
 17 18  2  0
 12 19  1  0
 19 20  2  0
  7 21  1  0
 21 22  1  0
 22 23  2  0
 23 24  1  0
 24 25  2  0
 20  9  1  0
 25 21  1  0
 18 13  1  0
M  END
