
     RDKit          3D

 20 21  0  0  0  0  0  0  0  0999 V2000
   -2.0667    2.6434   -0.5926 C   0  0  0  0  0  0  0  0  0  0  0  0
   -1.0352    1.6399   -0.1194 C   0  0  0  0  0  0  0  0  0  0  0  0
   -0.5855    0.8916   -1.2389 O   0  0  0  0  0  0  0  0  0  0  0  0
   -0.1833   -0.6791   -1.0686 P   0  0  1  0  0  5  0  0  0  0  0  0
    0.6497   -1.4156   -2.6743 S   0  0  0  0  0  0  0  0  0  0  0  0
    0.7740   -0.6402    0.2434 O   0  0  0  0  0  0  0  0  0  0  0  0
    1.9877   -0.0254    0.3681 C   0  0  0  0  0  0  0  0  0  0  0  0
    2.6923   -0.3204    1.5374 C   0  0  0  0  0  0  0  0  0  0  0  0
    3.9410    0.2593    1.7765 C   0  0  0  0  0  0  0  0  0  0  0  0
    4.4901    1.1435    0.8441 C   0  0  0  0  0  0  0  0  0  0  0  0
    5.7701    1.7427    1.0850 C   0  0  0  0  0  0  0  0  0  0  0  0
    6.8036    2.2308    1.2863 N   0  0  0  0  0  0  0  0  0  0  0  0
    3.7804    1.4429   -0.3229 C   0  0  0  0  0  0  0  0  0  0  0  0
    2.5295    0.8612   -0.5591 C   0  0  0  0  0  0  0  0  0  0  0  0
   -1.6911   -1.4586   -0.4896 C   0  0  0  0  0  0  0  0  0  0  0  0
   -1.6895   -2.3202    0.6177 C   0  0  0  0  0  0  0  0  0  0  0  0
   -2.8731   -2.9186    1.0529 C   0  0  0  0  0  0  0  0  0  0  0  0
   -4.0694   -2.6679    0.3835 C   0  0  0  0  0  0  0  0  0  0  0  0
   -4.0849   -1.8230   -0.7241 C   0  0  0  0  0  0  0  0  0  0  0  0
   -2.9028   -1.2243   -1.1603 C   0  0  0  0  0  0  0  0  0  0  0  0
  1  2  1  0
  2  3  1  0
  4  3  1  6
  4  5  2  0
  4  6  1  0
  6  7  1  0
  7  8  2  0
  8  9  1  0
  9 10  2  0
 10 11  1  0
 11 12  3  0
 10 13  1  0
 13 14  2  0
  4 15  1  0
 15 16  2  0
 16 17  1  0
 17 18  2  0
 18 19  1  0
 19 20  2  0
 14  7  1  0
 20 15  1  0
M  END
