
     RDKit          3D

 21 21  0  0  0  0  0  0  0  0999 V2000
   -2.3086    4.2413   -0.6356 C   0  0  0  0  0  0  0  0  0  0  0  0
   -1.1020    3.3296   -0.5487 C   0  0  0  0  0  0  0  0  0  0  0  0
   -1.5440    2.0318   -0.1795 O   0  0  0  0  0  0  0  0  0  0  0  0
   -0.4845    0.9977    0.4831 P   0  0  1  0  0  5  0  0  0  0  0  0
    0.1131    1.5061    2.2609 S   0  0  0  0  0  0  0  0  0  0  0  0
   -1.2209   -0.4635    0.2474 N   0  0  0  0  0  0  0  0  0  0  0  0
   -2.6192   -0.6908    0.6226 C   0  0  2  0  0  0  0  0  0  0  0  0
   -2.8355   -0.6357    2.1336 C   0  0  0  0  0  0  0  0  0  0  0  0
   -3.1003   -2.0381    0.0410 C   0  0  0  0  0  0  0  0  0  0  0  0
   -2.3508   -3.2648    0.5486 C   0  0  0  0  0  0  0  0  0  0  0  0
    0.6689    1.0206   -0.6551 O   0  0  0  0  0  0  0  0  0  0  0  0
    1.8628    0.3546   -0.6286 C   0  0  0  0  0  0  0  0  0  0  0  0
    2.0719   -0.7910    0.1434 C   0  0  0  0  0  0  0  0  0  0  0  0
    3.3069   -1.4626    0.1154 C   0  0  0  0  0  0  0  0  0  0  0  0
    3.5046   -2.7059    0.9357 C   0  0  0  0  0  0  0  0  0  0  0  0
    4.3298   -1.0001   -0.7221 C   0  0  0  0  0  0  0  0  0  0  0  0
    4.1359    0.1373   -1.5034 C   0  0  0  0  0  0  0  0  0  0  0  0
    2.9069    0.8073   -1.4446 C   0  0  0  0  0  0  0  0  0  0  0  0
    2.7400    1.9971   -2.2666 N   0  0  0  0  0  4  0  0  0  0  0  0
    2.2401    3.0012   -1.7400 O   0  0  0  0  0  0  0  0  0  0  0  0
    3.1310    1.9291   -3.4408 O   0  0  0  0  0  1  0  0  0  0  0  0
  1  2  1  0
  2  3  1  0
  3  4  1  0
  4  5  2  0
  4  6  1  1
  6  7  1  0
  7  8  1  1
  7  9  1  0
  9 10  1  0
  4 11  1  0
 11 12  1  0
 12 13  2  0
 13 14  1  0
 14 15  1  0
 14 16  2  0
 16 17  1  0
 17 18  2  0
 18 19  1  0
 19 20  2  0
 19 21  1  0
 18 12  1  0
M  CHG  2  19   1  21  -1
M  END
