
     RDKit          3D

 20 21  0  0  0  0  0  0  0  0999 V2000
   -3.6584   -0.8531   -1.5940 C   0  0  0  0  0  0  0  0  0  0  0  0
   -2.6350   -0.5245   -0.4777 C   0  0  0  0  0  0  0  0  0  0  0  0
   -3.2669    0.5730    0.3972 C   0  0  0  0  0  0  0  0  0  0  0  0
   -2.4519   -1.7992    0.3665 C   0  0  0  0  0  0  0  0  0  0  0  0
   -1.2830   -0.0882   -1.1433 C   0  0  1  0  0  0  0  0  0  0  0  0
   -1.4236    1.1567   -1.8412 O   0  0  0  0  0  0  0  0  0  0  0  0
   -0.0005   -0.0376   -0.2606 C   0  0  1  0  0  0  0  0  0  0  0  0
    1.2420    0.2579   -1.1390 C   0  0  0  0  0  0  0  0  0  0  0  0
    2.5559   -0.0593   -0.4580 C   0  0  0  0  0  0  0  0  0  0  0  0
    3.2896    0.9501    0.1812 C   0  0  0  0  0  0  0  0  0  0  0  0
    4.4928    0.6512    0.8243 C   0  0  0  0  0  0  0  0  0  0  0  0
    4.9678   -0.6577    0.8315 C   0  0  0  0  0  0  0  0  0  0  0  0
    6.4511   -1.0259    1.6221 Cl  0  0  0  0  0  0  0  0  0  0  0  0
    4.2492   -1.6714    0.2021 C   0  0  0  0  0  0  0  0  0  0  0  0
    3.0450   -1.3737   -0.4399 C   0  0  0  0  0  0  0  0  0  0  0  0
   -0.0839    0.9007    0.8461 N   0  0  0  0  0  0  0  0  0  0  0  0
   -0.2099    2.2571    0.8079 C   0  0  0  0  0  0  0  0  0  0  0  0
   -0.1680    2.7397    2.0285 N   0  0  0  0  0  0  0  0  0  0  0  0
   -0.0178    1.6200    2.7944 C   0  0  0  0  0  0  0  0  0  0  0  0
    0.0321    0.4690    2.1195 N   0  0  0  0  0  0  0  0  0  0  0  0
  1  2  1  0
  2  3  1  0
  2  4  1  0
  2  5  1  0
  5  6  1  1
  5  7  1  0
  7  8  1  6
  8  9  1  0
  9 10  2  0
 10 11  1  0
 11 12  2  0
 12 13  1  0
 12 14  1  0
 14 15  2  0
  7 16  1  0
 16 17  1  0
 17 18  2  0
 18 19  1  0
 19 20  2  0
 15  9  1  0
 20 16  1  0
M  END
