
     RDKit          3D

 25 27  0  0  0  0  0  0  0  0999 V2000
   -3.0840    0.5629   -2.0215 C   0  0  0  0  0  0  0  0  0  0  0  0
   -3.7378    0.6796   -0.6324 C   0  0  0  0  0  0  0  0  0  0  0  0
   -3.3280    2.0241   -0.0023 C   0  0  0  0  0  0  0  0  0  0  0  0
   -5.2701    0.7086   -0.8431 C   0  0  0  0  0  0  0  0  0  0  0  0
   -3.3717   -0.5167    0.3126 C   0  0  1  0  0  0  0  0  0  0  0  0
   -3.7597   -1.7552   -0.3123 O   0  0  0  0  0  0  0  0  0  0  0  0
   -1.8821   -0.5984    0.7629 C   0  0  2  0  0  0  0  0  0  0  0  0
   -1.0326   -0.9421   -0.3410 O   0  0  0  0  0  0  0  0  0  0  0  0
    0.2771   -0.5530   -0.3126 C   0  0  0  0  0  0  0  0  0  0  0  0
    0.9766   -0.0725    0.7916 C   0  0  0  0  0  0  0  0  0  0  0  0
    2.3267    0.2837    0.6682 C   0  0  0  0  0  0  0  0  0  0  0  0
    3.0072    0.1621   -0.5535 C   0  0  0  0  0  0  0  0  0  0  0  0
    4.4255    0.5369   -0.6748 C   0  0  0  0  0  0  0  0  0  0  0  0
    4.8751    1.8081   -0.2797 C   0  0  0  0  0  0  0  0  0  0  0  0
    6.2215    2.1649   -0.3950 C   0  0  0  0  0  0  0  0  0  0  0  0
    7.1425    1.2547   -0.9070 C   0  0  0  0  0  0  0  0  0  0  0  0
    6.7186   -0.0108   -1.3038 C   0  0  0  0  0  0  0  0  0  0  0  0
    5.3716   -0.3656   -1.1888 C   0  0  0  0  0  0  0  0  0  0  0  0
    2.2918   -0.3345   -1.6520 C   0  0  0  0  0  0  0  0  0  0  0  0
    0.9450   -0.6902   -1.5304 C   0  0  0  0  0  0  0  0  0  0  0  0
   -1.7404   -1.6000    1.8188 N   0  0  0  0  0  0  0  0  0  0  0  0
   -1.6247   -2.9503    1.6922 C   0  0  0  0  0  0  0  0  0  0  0  0
   -1.5271   -3.4973    2.8826 N   0  0  0  0  0  0  0  0  0  0  0  0
   -1.5877   -2.4222    3.7211 C   0  0  0  0  0  0  0  0  0  0  0  0
   -1.7246   -1.2351    3.1228 N   0  0  0  0  0  0  0  0  0  0  0  0
  1  2  1  0
  2  3  1  0
  2  4  1  0
  2  5  1  0
  5  6  1  6
  5  7  1  0
  7  8  1  6
  8  9  1  0
  9 10  2  0
 10 11  1  0
 11 12  2  0
 12 13  1  0
 13 14  2  0
 14 15  1  0
 15 16  2  0
 16 17  1  0
 17 18  2  0
 12 19  1  0
 19 20  2  0
  7 21  1  0
 21 22  1  0
 22 23  2  0
 23 24  1  0
 24 25  2  0
 20  9  1  0
 25 21  1  0
 18 13  1  0
M  END
