
     RDKit          3D

 30 32  0  0  0  0  0  0  0  0999 V2000
   -3.3351   -2.7152    1.7919 C   0  0  0  0  0  0  0  0  0  0  0  0
   -3.4295   -1.7679    0.5925 C   0  0  0  0  0  0  0  0  0  0  0  0
   -4.8789   -1.6950    0.1020 C   0  0  0  0  0  0  0  0  0  0  0  0
   -2.8281   -0.3560    0.8373 C   0  0  2  0  0  0  0  0  0  0  0  0
   -1.3059   -0.4494    0.9681 C   0  0  0  0  0  0  0  0  0  0  0  0
   -0.6650   -0.4958    2.0080 O   0  0  0  0  0  0  0  0  0  0  0  0
   -0.7418   -0.5167   -0.2726 O   0  0  0  0  0  0  0  0  0  0  0  0
    0.6912   -0.6929   -0.2767 C   0  0  1  0  0  0  0  0  0  0  0  0
    1.0403   -2.1201   -0.1003 C   0  0  0  0  0  0  0  0  0  0  0  0
    1.2950   -3.2461    0.0320 N   0  0  0  0  0  0  0  0  0  0  0  0
    1.2186   -0.1572   -1.6005 C   0  0  0  0  0  0  0  0  0  0  0  0
    0.5578   -0.4180   -2.8158 C   0  0  0  0  0  0  0  0  0  0  0  0
    1.0581    0.0791   -4.0211 C   0  0  0  0  0  0  0  0  0  0  0  0
    2.2344    0.8261   -4.0335 C   0  0  0  0  0  0  0  0  0  0  0  0
    2.9177    1.0630   -2.8430 C   0  0  0  0  0  0  0  0  0  0  0  0
    4.0603    1.8252   -2.9168 O   0  0  0  0  0  0  0  0  0  0  0  0
    5.1730    1.3654   -2.2478 C   0  0  0  0  0  0  0  0  0  0  0  0
    5.9308    2.3144   -1.5613 C   0  0  0  0  0  0  0  0  0  0  0  0
    7.0824    1.9241   -0.8780 C   0  0  0  0  0  0  0  0  0  0  0  0
    7.4826    0.5878   -0.8940 C   0  0  0  0  0  0  0  0  0  0  0  0
    6.7399   -0.3566   -1.6025 C   0  0  0  0  0  0  0  0  0  0  0  0
    5.5871    0.0310   -2.2866 C   0  0  0  0  0  0  0  0  0  0  0  0
    2.4054    0.5951   -1.6284 C   0  0  0  0  0  0  0  0  0  0  0  0
   -3.5061    0.4635    1.9323 C   0  0  0  0  0  0  0  0  0  0  0  0
   -4.4285    1.4626    1.5686 C   0  0  0  0  0  0  0  0  0  0  0  0
   -5.0849    2.2244    2.5387 C   0  0  0  0  0  0  0  0  0  0  0  0
   -4.8268    1.9987    3.8865 C   0  0  0  0  0  0  0  0  0  0  0  0
   -5.6320    2.9383    5.0817 Cl  0  0  0  0  0  0  0  0  0  0  0  0
   -3.9201    1.0161    4.2704 C   0  0  0  0  0  0  0  0  0  0  0  0
   -3.2661    0.2515    3.2986 C   0  0  0  0  0  0  0  0  0  0  0  0
  1  2  1  0
  2  3  1  0
  4  2  1  1
  4  5  1  0
  5  6  2  0
  5  7  1  0
  7  8  1  0
  8  9  1  6
  9 10  3  0
  8 11  1  0
 11 12  2  0
 12 13  1  0
 13 14  2  0
 14 15  1  0
 15 16  1  0
 16 17  1  0
 17 18  2  0
 18 19  1  0
 19 20  2  0
 20 21  1  0
 21 22  2  0
 15 23  2  0
  4 24  1  0
 24 25  2  0
 25 26  1  0
 26 27  2  0
 27 28  1  0
 27 29  1  0
 29 30  2  0
 23 11  1  0
 30 24  1  0
 22 17  1  0
M  END
