
     RDKit          3D

 26 28  0  0  0  0  0  0  0  0999 V2000
   -4.3067   -1.6916    2.0749 C   0  0  0  0  0  0  0  0  0  0  0  0
   -4.2494   -0.7705    0.8773 C   0  0  0  0  0  0  0  0  0  0  0  0
   -5.5762   -0.6401    0.1662 C   0  0  0  0  0  0  0  0  0  0  0  0
   -3.2744    0.3962    0.9498 C   0  0  2  0  0  0  0  0  0  0  0  0
   -3.6174    1.7132    0.3886 C   0  0  0  0  0  0  0  0  0  0  0  0
   -2.7936    2.5832   -0.2171 C   0  0  0  0  0  0  0  0  0  0  0  0
   -3.3967    4.0990   -0.7871 Cl  0  0  0  0  0  0  0  0  0  0  0  0
   -1.1139    2.2576   -0.4478 Cl  0  0  0  0  0  0  0  0  0  0  0  0
   -3.0022   -0.7575    0.0047 C   0  0  1  0  0  0  0  0  0  0  0  0
   -1.8848   -1.7026    0.2399 C   0  0  0  0  0  0  0  0  0  0  0  0
   -1.9676   -2.8800   -0.0745 O   0  0  0  0  0  0  0  0  0  0  0  0
   -0.8090   -1.0831    0.7848 O   0  0  0  0  0  0  0  0  0  0  0  0
    0.3716   -1.8837    0.8894 C   0  0  0  0  0  0  0  0  0  0  0  0
    1.2221   -1.6682   -0.3354 C   0  0  0  0  0  0  0  0  0  0  0  0
    1.3353   -2.6664   -1.3130 C   0  0  0  0  0  0  0  0  0  0  0  0
    2.0885   -2.4446   -2.4678 C   0  0  0  0  0  0  0  0  0  0  0  0
    2.7342   -1.2231   -2.6561 C   0  0  0  0  0  0  0  0  0  0  0  0
    2.6380   -0.2283   -1.6841 C   0  0  0  0  0  0  0  0  0  0  0  0
    3.2597    0.9701   -1.9555 O   0  0  0  0  0  0  0  0  0  0  0  0
    3.9551    1.5662   -0.9271 C   0  0  0  0  0  0  0  0  0  0  0  0
    4.9066    0.8797   -0.1668 C   0  0  0  0  0  0  0  0  0  0  0  0
    5.6047    1.5505    0.8393 C   0  0  0  0  0  0  0  0  0  0  0  0
    5.3648    2.9059    1.0708 C   0  0  0  0  0  0  0  0  0  0  0  0
    4.4312    3.5949    0.2933 C   0  0  0  0  0  0  0  0  0  0  0  0
    3.7307    2.9261   -0.7122 C   0  0  0  0  0  0  0  0  0  0  0  0
    1.8698   -0.4399   -0.5363 C   0  0  0  0  0  0  0  0  0  0  0  0
  1  2  1  0
  2  3  1  0
  2  4  1  0
  4  5  1  6
  5  6  2  3
  6  7  1  0
  6  8  1  0
  4  9  1  0
  9 10  1  1
 10 11  2  0
 10 12  1  0
 12 13  1  0
 13 14  1  0
 14 15  2  0
 15 16  1  0
 16 17  2  0
 17 18  1  0
 18 19  1  0
 19 20  1  0
 20 21  2  0
 21 22  1  0
 22 23  2  0
 23 24  1  0
 24 25  2  0
 18 26  2  0
  9  2  1  0
 26 14  1  0
 25 20  1  0
M  END
