
     RDKit          3D

 21 22  0  0  0  0  0  0  0  0999 V2000
   -3.1291   -0.4839   -0.3449 C   0  0  0  0  0  0  0  0  0  0  0  0
   -2.0875    0.5750    0.0579 C   0  0  0  0  0  0  0  0  0  0  0  0
   -2.1499    0.7886    1.5819 C   0  0  0  0  0  0  0  0  0  0  0  0
   -2.5175    1.9051   -0.6116 C   0  0  0  0  0  0  0  0  0  0  0  0
   -0.6280    0.2239   -0.4036 C   0  0  2  0  0  0  0  0  0  0  0  0
   -0.5822   -0.0798   -1.8049 O   0  0  0  0  0  0  0  0  0  0  0  0
    0.1552   -0.8679    0.3856 C   0  0  2  0  0  0  0  0  0  0  0  0
    1.6202   -1.0287   -0.0945 C   0  0  0  0  0  0  0  0  0  0  0  0
    2.4855    0.2050    0.0719 C   0  0  0  0  0  0  0  0  0  0  0  0
    2.7606    0.9913   -1.0616 C   0  0  0  0  0  0  0  0  0  0  0  0
    3.5426    2.1432   -0.9601 C   0  0  0  0  0  0  0  0  0  0  0  0
    4.0606    2.5200    0.2753 C   0  0  0  0  0  0  0  0  0  0  0  0
    5.0213    3.9414    0.3994 Cl  0  0  0  0  0  0  0  0  0  0  0  0
    3.8065    1.7554    1.4098 C   0  0  0  0  0  0  0  0  0  0  0  0
    3.0239    0.6021    1.3085 C   0  0  0  0  0  0  0  0  0  0  0  0
    2.7579   -0.3069    2.7523 Cl  0  0  0  0  0  0  0  0  0  0  0  0
   -0.4820   -2.1784    0.3670 N   0  0  0  0  0  0  0  0  0  0  0  0
   -0.7427   -2.9857   -0.6994 C   0  0  0  0  0  0  0  0  0  0  0  0
   -1.2513   -4.1212   -0.2795 N   0  0  0  0  0  0  0  0  0  0  0  0
   -1.2710   -3.9648    1.0761 C   0  0  0  0  0  0  0  0  0  0  0  0
   -0.8044   -2.7959    1.5221 N   0  0  0  0  0  0  0  0  0  0  0  0
  1  2  1  0
  2  3  1  0
  2  4  1  0
  2  5  1  0
  5  6  1  6
  5  7  1  0
  7  8  1  6
  8  9  1  0
  9 10  2  0
 10 11  1  0
 11 12  2  0
 12 13  1  0
 12 14  1  0
 14 15  2  0
 15 16  1  0
  7 17  1  0
 17 18  1  0
 18 19  2  0
 19 20  1  0
 20 21  2  0
 15  9  1  0
 21 17  1  0
M  END
