
     RDKit          3D

 19 20  0  0  0  0  0  0  0  0999 V2000
    0.2819    2.2712    1.1560 O   0  0  0  0  0  0  0  0  0  0  0  0
    0.9907    1.3826    0.7061 C   0  0  0  0  0  0  0  0  0  0  0  0
    2.5060    1.4646    0.6043 C   0  0  1  0  0  0  0  0  0  0  0  0
    3.1846    2.0869    2.1203 Cl  0  0  0  0  0  0  0  0  0  0  0  0
    2.9358    0.0262    0.3220 C   0  0  2  0  0  0  0  0  0  0  0  0
    4.1864   -0.1110   -0.5386 C   0  0  0  0  0  0  0  0  0  0  0  0
    5.6558    0.4160    0.3028 Cl  0  0  0  0  0  0  0  0  0  0  0  0
    1.7264   -0.5449   -0.4069 C   0  0  0  0  0  0  0  0  0  0  0  0
    0.5904    0.1631    0.1290 N   0  0  0  0  0  0  0  0  0  0  0  0
   -0.7486   -0.2839   -0.0564 C   0  0  0  0  0  0  0  0  0  0  0  0
   -1.0247   -1.4019   -0.8596 C   0  0  0  0  0  0  0  0  0  0  0  0
   -2.3338   -1.8541   -1.0543 C   0  0  0  0  0  0  0  0  0  0  0  0
   -3.3977   -1.1987   -0.4438 C   0  0  0  0  0  0  0  0  0  0  0  0
   -3.1593   -0.0885    0.3731 C   0  0  0  0  0  0  0  0  0  0  0  0
   -4.2980    0.6457    1.0386 C   0  0  0  0  0  0  0  0  0  0  0  0
   -4.0486    0.9418    2.3438 F   0  0  0  0  0  0  0  0  0  0  0  0
   -4.5810    1.8290    0.4283 F   0  0  0  0  0  0  0  0  0  0  0  0
   -5.4648   -0.0601    1.0378 F   0  0  0  0  0  0  0  0  0  0  0  0
   -1.8351    0.3586    0.5534 C   0  0  0  0  0  0  0  0  0  0  0  0
  1  2  2  0
  2  3  1  0
  3  4  1  1
  3  5  1  0
  5  6  1  6
  6  7  1  0
  5  8  1  0
  8  9  1  0
  9 10  1  0
 10 11  2  0
 11 12  1  0
 12 13  2  0
 13 14  1  0
 14 15  1  0
 15 16  1  0
 15 17  1  0
 15 18  1  0
 14 19  2  0
  9  2  1  0
 19 10  1  0
M  END
