
     RDKit          3D

 20 21  0  0  0  0  0  0  0  0999 V2000
   -2.4781   -0.5602   -1.4923 C   0  0  0  0  0  0  0  0  0  0  0  0
   -2.1336   -1.1734   -0.1249 C   0  0  0  0  0  0  0  0  0  0  0  0
   -3.2571   -0.8118    0.8679 C   0  0  0  0  0  0  0  0  0  0  0  0
   -2.1505   -2.7122   -0.3053 C   0  0  0  0  0  0  0  0  0  0  0  0
   -0.7200   -0.7313    0.4110 C   0  0  2  0  0  0  0  0  0  0  0  0
   -0.4864   -1.4518    1.6402 O   0  0  0  0  0  0  0  0  0  0  0  0
   -0.5027    0.7831    0.7097 C   0  0  1  0  0  0  0  0  0  0  0  0
    0.7187    1.0859    1.6231 C   0  0  0  0  0  0  0  0  0  0  0  0
    2.0747    0.5914    1.1672 C   0  0  0  0  0  0  0  0  0  0  0  0
    2.6081   -0.5973    1.6876 C   0  0  0  0  0  0  0  0  0  0  0  0
    3.8605   -1.0577    1.2746 C   0  0  0  0  0  0  0  0  0  0  0  0
    4.5919   -0.3283    0.3413 C   0  0  0  0  0  0  0  0  0  0  0  0
    6.1339   -0.8955   -0.1693 Cl  0  0  0  0  0  0  0  0  0  0  0  0
    4.0836    0.8593   -0.1769 C   0  0  0  0  0  0  0  0  0  0  0  0
    2.8317    1.3196    0.2389 C   0  0  0  0  0  0  0  0  0  0  0  0
   -0.4803    1.6389   -0.4659 N   0  0  0  0  0  0  0  0  0  0  0  0
   -1.0369    2.8779   -0.5868 C   0  0  0  0  0  0  0  0  0  0  0  0
   -0.7925    3.3563   -1.7843 N   0  0  0  0  0  0  0  0  0  0  0  0
   -0.0703    2.3584   -2.3716 C   0  0  0  0  0  0  0  0  0  0  0  0
    0.1495    1.2885   -1.6035 N   0  0  0  0  0  0  0  0  0  0  0  0
  1  2  1  0
  2  3  1  0
  2  4  1  0
  2  5  1  0
  5  6  1  1
  5  7  1  0
  7  8  1  6
  8  9  1  0
  9 10  2  0
 10 11  1  0
 11 12  2  0
 12 13  1  0
 12 14  1  0
 14 15  2  0
  7 16  1  0
 16 17  1  0
 17 18  2  0
 18 19  1  0
 19 20  2  0
 15  9  1  0
 20 16  1  0
M  END
