
     RDKit          3D

 19 20  0  0  0  0  0  0  0  0999 V2000
    0.2690   -0.4906    2.4896 O   0  0  0  0  0  0  0  0  0  0  0  0
    0.9750   -0.3281    1.5051 C   0  0  0  0  0  0  0  0  0  0  0  0
    2.4906   -0.4619    1.5265 C   0  0  1  0  0  0  0  0  0  0  0  0
    2.8742   -2.2008    1.4680 Cl  0  0  0  0  0  0  0  0  0  0  0  0
    2.8993    0.3135    0.2747 C   0  0  1  0  0  0  0  0  0  0  0  0
    4.2546    0.0011   -0.3372 C   0  0  0  0  0  0  0  0  0  0  0  0
    5.5683    0.3794    0.7997 Cl  0  0  0  0  0  0  0  0  0  0  0  0
    1.7486    0.0365   -0.6808 C   0  0  0  0  0  0  0  0  0  0  0  0
    0.5885   -0.0415    0.1791 N   0  0  0  0  0  0  0  0  0  0  0  0
   -0.7427    0.0443   -0.3151 C   0  0  0  0  0  0  0  0  0  0  0  0
   -0.9884    0.1308   -1.6947 C   0  0  0  0  0  0  0  0  0  0  0  0
   -2.2901    0.2139   -2.1995 C   0  0  0  0  0  0  0  0  0  0  0  0
   -3.3772    0.2153   -1.3323 C   0  0  0  0  0  0  0  0  0  0  0  0
   -3.1700    0.1381    0.0489 C   0  0  0  0  0  0  0  0  0  0  0  0
   -4.3338    0.1244    1.0099 C   0  0  0  0  0  0  0  0  0  0  0  0
   -5.5053    0.5276    0.4399 F   0  0  0  0  0  0  0  0  0  0  0  0
   -4.5762   -1.1150    1.5174 F   0  0  0  0  0  0  0  0  0  0  0  0
   -4.1465    0.9431    2.0817 F   0  0  0  0  0  0  0  0  0  0  0  0
   -1.8525    0.0474    0.5409 C   0  0  0  0  0  0  0  0  0  0  0  0
  1  2  2  0
  2  3  1  0
  3  4  1  6
  3  5  1  0
  5  6  1  6
  6  7  1  0
  5  8  1  0
  8  9  1  0
  9 10  1  0
 10 11  2  0
 11 12  1  0
 12 13  2  0
 13 14  1  0
 14 15  1  0
 15 16  1  0
 15 17  1  0
 15 18  1  0
 14 19  2  0
  9  2  1  0
 19 10  1  0
M  END
