
     RDKit          3D

 20 21  0  0  0  0  0  0  0  0999 V2000
   -0.8593   -1.1862    1.4966 C   0  0  0  0  0  0  0  0  0  0  0  0
   -1.2196   -1.4033    0.0152 C   0  0  0  0  0  0  0  0  0  0  0  0
   -2.7062   -1.0540   -0.1653 C   0  0  0  0  0  0  0  0  0  0  0  0
   -1.0596   -2.9104   -0.2971 C   0  0  0  0  0  0  0  0  0  0  0  0
   -0.2596   -0.5830   -0.9183 C   0  0  1  0  0  0  0  0  0  0  0  0
   -0.4751   -0.9259   -2.2921 O   0  0  0  0  0  0  0  0  0  0  0  0
   -0.2218    0.9467   -0.7479 C   0  0  0  0  0  0  0  0  0  0  0  0
    0.7510    1.5710   -0.0343 C   0  0  0  0  0  0  0  0  0  0  0  0
    1.8900    0.9514    0.6551 C   0  0  0  0  0  0  0  0  0  0  0  0
    2.9411    0.3704   -0.0647 C   0  0  0  0  0  0  0  0  0  0  0  0
    4.0299   -0.1950    0.6070 C   0  0  0  0  0  0  0  0  0  0  0  0
    4.0760   -0.1652    1.9990 C   0  0  0  0  0  0  0  0  0  0  0  0
    5.4147   -0.8643    2.8276 Cl  0  0  0  0  0  0  0  0  0  0  0  0
    3.0440    0.4279    2.7244 C   0  0  0  0  0  0  0  0  0  0  0  0
    1.9561    0.9924    2.0520 C   0  0  0  0  0  0  0  0  0  0  0  0
   -1.2371    1.6861   -1.4179 N   0  0  0  0  0  0  0  0  0  0  0  0
   -1.4652    3.0575   -1.3662 C   0  0  0  0  0  0  0  0  0  0  0  0
   -2.4842    3.4144   -2.1108 N   0  0  0  0  0  0  0  0  0  0  0  0
   -2.8874    2.2348   -2.6369 C   0  0  0  0  0  0  0  0  0  0  0  0
   -2.1776    1.1690   -2.2715 N   0  0  0  0  0  0  0  0  0  0  0  0
  1  2  1  0
  2  3  1  0
  2  4  1  0
  2  5  1  0
  5  6  1  6
  5  7  1  0
  7  8  2  0
  8  9  1  0
  9 10  2  0
 10 11  1  0
 11 12  2  0
 12 13  1  0
 12 14  1  0
 14 15  2  0
  7 16  1  0
 16 17  1  0
 17 18  2  0
 18 19  1  0
 19 20  2  0
 15  9  1  0
 20 16  1  0
M  END
