
     RDKit          3D

 26 28  0  0  0  0  0  0  0  0999 V2000
   -4.3981    1.5592   -0.5003 C   0  0  0  0  0  0  0  0  0  0  0  0
   -3.8572    0.2153   -0.0717 C   0  0  0  0  0  0  0  0  0  0  0  0
   -2.8648    0.3111    1.0639 C   0  0  0  0  0  0  0  0  0  0  0  0
   -4.7313   -1.0277   -0.1074 C   0  0  1  0  0  0  0  0  0  0  0  0
   -6.1511   -0.9375   -0.4852 C   0  0  0  0  0  0  0  0  0  0  0  0
   -7.1787   -0.5798    0.3002 C   0  0  0  0  0  0  0  0  0  0  0  0
   -8.7869   -0.5438   -0.3302 Cl  0  0  0  0  0  0  0  0  0  0  0  0
   -6.9596   -0.1393    1.9543 Cl  0  0  0  0  0  0  0  0  0  0  0  0
   -3.6656   -0.8256   -1.1676 C   0  0  2  0  0  0  0  0  0  0  0  0
   -2.4885   -1.7237   -1.2016 C   0  0  0  0  0  0  0  0  0  0  0  0
   -2.5978   -2.9392   -1.1544 O   0  0  0  0  0  0  0  0  0  0  0  0
   -1.3350   -1.0236   -1.3238 O   0  0  0  0  0  0  0  0  0  0  0  0
   -0.1655   -1.8460   -1.3627 C   0  0  0  0  0  0  0  0  0  0  0  0
    1.0610   -0.9661   -1.3520 C   0  0  0  0  0  0  0  0  0  0  0  0
    1.1402    0.1733   -2.1672 C   0  0  0  0  0  0  0  0  0  0  0  0
    2.2934    0.9604   -2.1830 C   0  0  0  0  0  0  0  0  0  0  0  0
    3.3840    0.6173   -1.3859 C   0  0  0  0  0  0  0  0  0  0  0  0
    3.3138   -0.5081   -0.5635 C   0  0  0  0  0  0  0  0  0  0  0  0
    4.3670   -0.9343    0.2154 O   0  0  0  0  0  0  0  0  0  0  0  0
    5.0478    0.0229    0.9319 C   0  0  0  0  0  0  0  0  0  0  0  0
    4.3986    0.9139    1.7903 C   0  0  0  0  0  0  0  0  0  0  0  0
    5.1461    1.8394    2.5196 C   0  0  0  0  0  0  0  0  0  0  0  0
    6.5368    1.8628    2.4010 C   0  0  0  0  0  0  0  0  0  0  0  0
    7.1839    0.9563    1.5596 C   0  0  0  0  0  0  0  0  0  0  0  0
    6.4394    0.0294    0.8299 C   0  0  0  0  0  0  0  0  0  0  0  0
    2.1686   -1.3080   -0.5626 C   0  0  0  0  0  0  0  0  0  0  0  0
  1  2  1  0
  2  3  1  0
  2  4  1  0
  4  5  1  6
  5  6  2  3
  6  7  1  0
  6  8  1  0
  4  9  1  0
  9 10  1  1
 10 11  2  0
 10 12  1  0
 12 13  1  0
 13 14  1  0
 14 15  2  0
 15 16  1  0
 16 17  2  0
 17 18  1  0
 18 19  1  0
 19 20  1  0
 20 21  2  0
 21 22  1  0
 22 23  2  0
 23 24  1  0
 24 25  2  0
 18 26  2  0
  9  2  1  0
 26 14  1  0
 25 20  1  0
M  END
