
     RDKit          3D

 11 10  0  0  0  0  0  0  0  0999 V2000
    4.4158   -0.5984   -1.1752 C   0  0  0  0  0  0  0  0  0  0  0  0
    3.2182   -0.0795   -0.4224 C   0  0  0  0  0  0  0  0  0  0  0  0
    3.2836    1.3863   -0.0931 C   0  0  0  0  0  0  0  0  0  0  0  0
    2.1972   -0.9006   -0.1082 C   0  0  0  0  0  0  0  0  0  0  0  0
    0.9476   -0.5646    0.6596 C   0  0  0  0  0  0  0  0  0  0  0  0
   -0.2627   -0.4649   -0.2742 C   0  0  0  0  0  0  0  0  0  0  0  0
   -1.5554    0.0013    0.4321 C   0  0  2  0  0  0  0  0  0  0  0  0
   -2.0120   -1.0026    1.4948 C   0  0  0  0  0  0  0  0  0  0  0  0
   -2.6495    0.2400   -0.6282 C   0  0  0  0  0  0  0  0  0  0  0  0
   -3.9211    0.8746   -0.0763 C   0  0  0  0  0  0  0  0  0  0  0  0
   -4.7961    1.1586   -1.1611 O   0  0  0  0  0  0  0  0  0  0  0  0
  1  2  1  0
  2  3  1  0
  2  4  2  3
  4  5  1  0
  5  6  1  0
  6  7  1  0
  7  8  1  1
  7  9  1  0
  9 10  1  0
 10 11  1  0
M  END
