
     RDKit          3D

 26 28  0  0  0  0  0  0  0  0999 V2000
    4.9059    1.2609    1.6131 C   0  0  0  0  0  0  0  0  0  0  0  0
    4.8552    0.4671    0.3287 C   0  0  0  0  0  0  0  0  0  0  0  0
    5.4777   -0.9034    0.4570 C   0  0  0  0  0  0  0  0  0  0  0  0
    4.9429    1.2512   -0.9729 C   0  0  1  0  0  0  0  0  0  0  0  0
    5.7151    0.7300   -2.1126 C   0  0  0  0  0  0  0  0  0  0  0  0
    5.3859    0.7675   -3.4132 C   0  0  0  0  0  0  0  0  0  0  0  0
    6.4572    0.1124   -4.6009 Cl  0  0  0  0  0  0  0  0  0  0  0  0
    3.9062    1.4592   -3.9697 Cl  0  0  0  0  0  0  0  0  0  0  0  0
    3.6409    0.5810   -0.5829 C   0  0  2  0  0  0  0  0  0  0  0  0
    2.4584    1.3950   -0.2064 C   0  0  0  0  0  0  0  0  0  0  0  0
    2.4887    2.6128   -0.1080 O   0  0  0  0  0  0  0  0  0  0  0  0
    1.3821    0.6041    0.0268 O   0  0  0  0  0  0  0  0  0  0  0  0
    0.2126    1.3301    0.4085 C   0  0  0  0  0  0  0  0  0  0  0  0
   -0.9024    0.3396    0.6243 C   0  0  0  0  0  0  0  0  0  0  0  0
   -0.8529   -0.5595    1.7004 C   0  0  0  0  0  0  0  0  0  0  0  0
   -1.8721   -1.4942    1.8933 C   0  0  0  0  0  0  0  0  0  0  0  0
   -2.9549   -1.5378    1.0161 C   0  0  0  0  0  0  0  0  0  0  0  0
   -3.0248   -0.6319   -0.0442 C   0  0  0  0  0  0  0  0  0  0  0  0
   -4.0447   -0.6380   -0.9700 O   0  0  0  0  0  0  0  0  0  0  0  0
   -5.3314   -0.7655   -0.4989 C   0  0  0  0  0  0  0  0  0  0  0  0
   -5.8326    0.0115    0.5489 C   0  0  0  0  0  0  0  0  0  0  0  0
   -7.1584   -0.1465    0.9555 C   0  0  0  0  0  0  0  0  0  0  0  0
   -7.9839   -1.0647    0.3049 C   0  0  0  0  0  0  0  0  0  0  0  0
   -7.4878   -1.8213   -0.7574 C   0  0  0  0  0  0  0  0  0  0  0  0
   -6.1625   -1.6668   -1.1648 C   0  0  0  0  0  0  0  0  0  0  0  0
   -1.9948    0.2881   -0.2525 C   0  0  0  0  0  0  0  0  0  0  0  0
  1  2  1  0
  2  3  1  0
  2  4  1  0
  4  5  1  6
  5  6  2  3
  6  7  1  0
  6  8  1  0
  4  9  1  0
  9 10  1  1
 10 11  2  0
 10 12  1  0
 12 13  1  0
 13 14  1  0
 14 15  2  0
 15 16  1  0
 16 17  2  0
 17 18  1  0
 18 19  1  0
 19 20  1  0
 20 21  2  0
 21 22  1  0
 22 23  2  0
 23 24  1  0
 24 25  2  0
 18 26  2  0
  9  2  1  0
 26 14  1  0
 25 20  1  0
M  END
