
     RDKit          3D

 19 20  0  0  0  0  0  0  0  0999 V2000
    1.4439    1.5422    2.3474 O   0  0  0  0  0  0  0  0  0  0  0  0
    1.6267    1.1403    1.2079 C   0  0  0  0  0  0  0  0  0  0  0  0
    2.9476    1.2921    0.4742 C   0  0  2  0  0  0  0  0  0  0  0  0
    3.0378    2.9499   -0.1729 Cl  0  0  0  0  0  0  0  0  0  0  0  0
    2.8536    0.2582   -0.6442 C   0  0  1  0  0  0  0  0  0  0  0  0
    3.3816   -1.0953   -0.1547 C   0  0  0  0  0  0  0  0  0  0  0  0
    3.3959   -2.2966   -1.4699 Cl  0  0  0  0  0  0  0  0  0  0  0  0
    1.3568    0.2251   -0.9377 C   0  0  0  0  0  0  0  0  0  0  0  0
    0.7250    0.5001    0.3363 N   0  0  0  0  0  0  0  0  0  0  0  0
   -0.6566    0.2586    0.5791 C   0  0  0  0  0  0  0  0  0  0  0  0
   -1.2341    0.4668    1.8374 C   0  0  0  0  0  0  0  0  0  0  0  0
   -2.5920    0.2189    2.0670 C   0  0  0  0  0  0  0  0  0  0  0  0
   -3.4052   -0.2416    1.0373 C   0  0  0  0  0  0  0  0  0  0  0  0
   -2.8670   -0.4509   -0.2359 C   0  0  0  0  0  0  0  0  0  0  0  0
   -3.7297   -0.9661   -1.3610 C   0  0  0  0  0  0  0  0  0  0  0  0
   -3.6698   -2.3210   -1.4779 F   0  0  0  0  0  0  0  0  0  0  0  0
   -3.3653   -0.4706   -2.5771 F   0  0  0  0  0  0  0  0  0  0  0  0
   -5.0485   -0.6591   -1.2151 F   0  0  0  0  0  0  0  0  0  0  0  0
   -1.4952   -0.2058   -0.4484 C   0  0  0  0  0  0  0  0  0  0  0  0
  1  2  2  0
  2  3  1  0
  3  4  1  6
  3  5  1  0
  5  6  1  1
  6  7  1  0
  5  8  1  0
  8  9  1  0
  9 10  1  0
 10 11  2  0
 11 12  1  0
 12 13  2  0
 13 14  1  0
 14 15  1  0
 15 16  1  0
 15 17  1  0
 15 18  1  0
 14 19  2  0
  9  2  1  0
 19 10  1  0
M  END
