
     RDKit          3D

 21 21  0  0  0  0  0  0  0  0999 V2000
    1.0254    4.0094    1.0362 C   0  0  0  0  0  0  0  0  0  0  0  0
   -0.1261    3.5242    0.1794 C   0  0  0  0  0  0  0  0  0  0  0  0
   -0.6553    2.3423    0.7635 O   0  0  0  0  0  0  0  0  0  0  0  0
   -1.4562    1.2908   -0.1789 P   0  0  2  0  0  5  0  0  0  0  0  0
   -2.9727    2.0906   -1.0898 S   0  0  0  0  0  0  0  0  0  0  0  0
   -1.7947    0.0662    0.8763 N   0  0  0  0  0  0  0  0  0  0  0  0
   -2.6106   -1.0905    0.4882 C   0  0  2  0  0  0  0  0  0  0  0  0
   -2.8391   -1.9368    1.7457 C   0  0  0  0  0  0  0  0  0  0  0  0
   -1.9418   -1.9047   -0.6332 C   0  0  0  0  0  0  0  0  0  0  0  0
   -2.7529   -3.1148   -1.0790 C   0  0  0  0  0  0  0  0  0  0  0  0
   -0.2903    0.7720   -1.1689 O   0  0  0  0  0  0  0  0  0  0  0  0
    0.9477    0.2794   -0.8637 C   0  0  0  0  0  0  0  0  0  0  0  0
    1.3820    0.0246    0.4380 C   0  0  0  0  0  0  0  0  0  0  0  0
    2.6539   -0.5254    0.6827 C   0  0  0  0  0  0  0  0  0  0  0  0
    3.1093   -0.7624    2.0947 C   0  0  0  0  0  0  0  0  0  0  0  0
    3.5097   -0.8029   -0.3906 C   0  0  0  0  0  0  0  0  0  0  0  0
    3.0970   -0.5512   -1.6966 C   0  0  0  0  0  0  0  0  0  0  0  0
    1.8246   -0.0091   -1.9155 C   0  0  0  0  0  0  0  0  0  0  0  0
    1.4382    0.2726   -3.2854 N   0  0  0  0  0  4  0  0  0  0  0  0
    1.1111    1.4359   -3.5578 O   0  0  0  0  0  0  0  0  0  0  0  0
    1.5054   -0.6654   -4.0921 O   0  0  0  0  0  1  0  0  0  0  0  0
  1  2  1  0
  2  3  1  0
  3  4  1  0
  4  5  2  0
  4  6  1  1
  6  7  1  0
  7  8  1  1
  7  9  1  0
  9 10  1  0
  4 11  1  0
 11 12  1  0
 12 13  2  0
 13 14  1  0
 14 15  1  0
 14 16  2  0
 16 17  1  0
 17 18  2  0
 18 19  1  0
 19 20  2  0
 19 21  1  0
 18 12  1  0
M  CHG  2  19   1  21  -1
M  END
