
     RDKit          3D

 25 27  0  0  0  0  0  0  0  0999 V2000
   -4.7714    0.0923    0.4961 C   0  0  0  0  0  0  0  0  0  0  0  0
   -3.9100    1.1537   -0.2116 C   0  0  0  0  0  0  0  0  0  0  0  0
   -3.1936    1.9955    0.8597 C   0  0  0  0  0  0  0  0  0  0  0  0
   -4.8814    2.0973   -0.9661 C   0  0  0  0  0  0  0  0  0  0  0  0
   -2.9330    0.5084   -1.2575 C   0  0  1  0  0  0  0  0  0  0  0  0
   -2.3335    1.5729   -2.0374 O   0  0  0  0  0  0  0  0  0  0  0  0
   -1.7797   -0.4290   -0.7915 C   0  0  1  0  0  0  0  0  0  0  0  0
   -0.9243    0.2932    0.1139 O   0  0  0  0  0  0  0  0  0  0  0  0
    0.4267    0.1051    0.0325 C   0  0  0  0  0  0  0  0  0  0  0  0
    1.1894    1.1053    0.6364 C   0  0  0  0  0  0  0  0  0  0  0  0
    2.5857    1.0325    0.6402 C   0  0  0  0  0  0  0  0  0  0  0  0
    3.2526   -0.0492    0.0475 C   0  0  0  0  0  0  0  0  0  0  0  0
    4.7222   -0.1304    0.0485 C   0  0  0  0  0  0  0  0  0  0  0  0
    5.4527   -0.0282    1.2443 C   0  0  0  0  0  0  0  0  0  0  0  0
    6.8481   -0.1060    1.2457 C   0  0  0  0  0  0  0  0  0  0  0  0
    7.5376   -0.2864    0.0495 C   0  0  0  0  0  0  0  0  0  0  0  0
    6.8333   -0.3897   -1.1472 C   0  0  0  0  0  0  0  0  0  0  0  0
    5.4378   -0.3129   -1.1468 C   0  0  0  0  0  0  0  0  0  0  0  0
    2.4713   -1.0562   -0.5409 C   0  0  0  0  0  0  0  0  0  0  0  0
    1.0719   -0.9857   -0.5454 C   0  0  0  0  0  0  0  0  0  0  0  0
   -2.2251   -1.6780   -0.1964 N   0  0  0  0  0  0  0  0  0  0  0  0
   -2.0198   -2.1458    1.0668 C   0  0  0  0  0  0  0  0  0  0  0  0
   -2.5446   -3.3436    1.1860 N   0  0  0  0  0  0  0  0  0  0  0  0
   -3.0517   -3.5830   -0.0571 C   0  0  0  0  0  0  0  0  0  0  0  0
   -2.8730   -2.6001   -0.9432 N   0  0  0  0  0  0  0  0  0  0  0  0
  1  2  1  0
  2  3  1  0
  2  4  1  0
  2  5  1  0
  5  6  1  1
  5  7  1  0
  7  8  1  1
  8  9  1  0
  9 10  2  0
 10 11  1  0
 11 12  2  0
 12 13  1  0
 13 14  2  0
 14 15  1  0
 15 16  2  0
 16 17  1  0
 17 18  2  0
 12 19  1  0
 19 20  2  0
  7 21  1  0
 21 22  1  0
 22 23  2  0
 23 24  1  0
 24 25  2  0
 20  9  1  0
 25 21  1  0
 18 13  1  0
M  END
