
     RDKit          3D

 15 14  0  0  0  0  0  0  0  0999 V2000
   -3.1540   -1.9679    0.0891 C   0  0  0  0  0  0  0  0  0  0  0  0
   -1.6460   -2.0979    0.1779 C   0  0  0  0  0  0  0  0  0  0  0  0
   -1.0400   -0.8548   -0.1366 O   0  0  0  0  0  0  0  0  0  0  0  0
   -0.4143    0.0860    1.0200 P   0  0  0  0  0  5  0  0  0  0  0  0
   -1.3409    0.1669    2.7178 S   0  0  0  0  0  0  0  0  0  0  0  0
   -0.2699    1.4738    0.2034 O   0  0  0  0  0  0  0  0  0  0  0  0
    0.0946    2.6550    0.9012 C   0  0  0  0  0  0  0  0  0  0  0  0
    0.4120    3.7385   -0.1097 C   0  0  0  0  0  0  0  0  0  0  0  0
    1.1114   -0.4321    1.0971 O   0  0  0  0  0  0  0  0  0  0  0  0
    1.8869   -0.5196   -0.0933 C   0  0  1  0  0  0  0  0  0  0  0  0
    2.9829    0.9109   -0.1210 Cl  0  0  0  0  0  0  0  0  0  0  0  0
    2.6872   -1.8534   -0.1676 C   0  0  0  0  0  0  0  0  0  0  0  0
    3.6194   -1.9709   -1.7044 Cl  0  0  0  0  0  0  0  0  0  0  0  0
    3.8293   -2.0459    1.2094 Cl  0  0  0  0  0  0  0  0  0  0  0  0
    1.5713   -3.2676   -0.1281 Cl  0  0  0  0  0  0  0  0  0  0  0  0
  1  2  1  0
  2  3  1  0
  3  4  1  0
  4  5  2  0
  4  6  1  0
  6  7  1  0
  7  8  1  0
  4  9  1  0
  9 10  1  0
 10 11  1  1
 10 12  1  0
 12 13  1  0
 12 14  1  0
 12 15  1  0
M  END
