
     RDKit          3D

 18 19  0  0  0  0  0  0  0  0999 V2000
   -3.0099    1.7817    0.8594 C   0  0  0  0  0  0  0  0  0  0  0  0
   -3.0627    0.4420    0.8433 C   0  0  0  0  0  0  0  0  0  0  0  0
   -2.2218   -0.5077    0.0260 C   0  0  2  0  0  0  0  0  0  0  0  0
   -3.0532   -1.2234   -1.0336 C   0  0  0  0  0  0  0  0  0  0  0  0
   -1.6909   -1.4822    0.9201 O   0  0  0  0  0  0  0  0  0  0  0  0
   -0.3304   -1.3826    0.9441 C   0  0  0  0  0  0  0  0  0  0  0  0
    0.3197   -2.0863    1.7023 O   0  0  0  0  0  0  0  0  0  0  0  0
    0.1135   -0.4442    0.0565 N   0  0  0  0  0  0  0  0  0  0  0  0
    1.4833   -0.1017   -0.1873 C   0  0  0  0  0  0  0  0  0  0  0  0
    2.5427   -0.8626    0.3378 C   0  0  0  0  0  0  0  0  0  0  0  0
    3.8788   -0.5186    0.0958 C   0  0  0  0  0  0  0  0  0  0  0  0
    5.1409   -1.4885    0.7531 Cl  0  0  0  0  0  0  0  0  0  0  0  0
    4.2015    0.5914   -0.6704 C   0  0  0  0  0  0  0  0  0  0  0  0
    3.1717    1.3579   -1.1945 C   0  0  0  0  0  0  0  0  0  0  0  0
    3.5466    2.7471   -2.1404 Cl  0  0  0  0  0  0  0  0  0  0  0  0
    1.8330    1.0207   -0.9595 C   0  0  0  0  0  0  0  0  0  0  0  0
   -0.9685    0.0900   -0.5951 C   0  0  0  0  0  0  0  0  0  0  0  0
   -0.9876    0.8784   -1.5330 O   0  0  0  0  0  0  0  0  0  0  0  0
  1  2  2  0
  2  3  1  0
  3  4  1  6
  3  5  1  0
  5  6  1  0
  6  7  2  0
  6  8  1  0
  8  9  1  0
  9 10  2  0
 10 11  1  0
 11 12  1  0
 11 13  2  0
 13 14  1  0
 14 15  1  0
 14 16  2  0
  8 17  1  0
 17 18  2  0
 17  3  1  0
 16  9  1  0
M  END
