
     RDKit          3D

 24 26  0  0  0  0  0  0  0  0999 V2000
   -1.3805    0.5924    3.5971 N   0  0  0  0  0  0  0  0  0  0  0  0
   -1.2477    0.5472    2.4450 C   0  0  0  0  0  0  0  0  0  0  0  0
   -1.1158    0.4631    0.9602 C   0  0  1  0  0  0  0  0  0  0  0  0
    0.3111   -0.0781    0.6320 C   0  0  0  0  0  0  0  0  0  0  0  0
    0.6086   -0.2455   -0.8653 C   0  0  0  0  0  0  0  0  0  0  0  0
    1.9911   -0.8102   -1.0864 C   0  0  0  0  0  0  0  0  0  0  0  0
    3.0833    0.0416   -1.3001 C   0  0  0  0  0  0  0  0  0  0  0  0
    4.3630   -0.4858   -1.4863 C   0  0  0  0  0  0  0  0  0  0  0  0
    4.5553   -1.8655   -1.4546 C   0  0  0  0  0  0  0  0  0  0  0  0
    6.1328   -2.5137   -1.6836 Cl  0  0  0  0  0  0  0  0  0  0  0  0
    3.4794   -2.7231   -1.2369 C   0  0  0  0  0  0  0  0  0  0  0  0
    2.1998   -2.1964   -1.0511 C   0  0  0  0  0  0  0  0  0  0  0  0
   -2.2381   -0.5036    0.4804 C   0  0  0  0  0  0  0  0  0  0  0  0
   -2.1557   -1.8596    0.9861 N   0  0  0  0  0  0  0  0  0  0  0  0
   -2.7856   -2.3972    2.0644 C   0  0  0  0  0  0  0  0  0  0  0  0
   -2.5075   -3.6783    2.1365 N   0  0  0  0  0  0  0  0  0  0  0  0
   -1.6978   -3.8813    1.0575 C   0  0  0  0  0  0  0  0  0  0  0  0
   -1.4597   -2.7957    0.3156 N   0  0  0  0  0  0  0  0  0  0  0  0
   -1.2638    1.8914    0.3719 C   0  0  0  0  0  0  0  0  0  0  0  0
   -2.1681    2.2081   -0.6586 C   0  0  0  0  0  0  0  0  0  0  0  0
   -2.2559    3.5076   -1.1699 C   0  0  0  0  0  0  0  0  0  0  0  0
   -1.4442    4.5185   -0.6668 C   0  0  0  0  0  0  0  0  0  0  0  0
   -0.5406    4.2334    0.3494 C   0  0  0  0  0  0  0  0  0  0  0  0
   -0.4497    2.9371    0.8614 C   0  0  0  0  0  0  0  0  0  0  0  0
  1  2  3  0
  3  2  1  1
  3  4  1  0
  4  5  1  0
  5  6  1  0
  6  7  2  0
  7  8  1  0
  8  9  2  0
  9 10  1  0
  9 11  1  0
 11 12  2  0
  3 13  1  0
 13 14  1  0
 14 15  1  0
 15 16  2  0
 16 17  1  0
 17 18  2  0
  3 19  1  0
 19 20  2  0
 20 21  1  0
 21 22  2  0
 22 23  1  0
 23 24  2  0
 12  6  1  0
 18 14  1  0
 24 19  1  0
M  END
