
     RDKit          3D

 21 21  0  0  0  0  0  0  0  0999 V2000
   -5.1566    3.5330    2.1142 C   0  0  0  0  0  0  0  0  0  0  0  0
   -4.7306    2.1660    1.6100 C   0  0  0  0  0  0  0  0  0  0  0  0
   -3.4915    2.2504    0.7287 C   0  0  0  0  0  0  0  0  0  0  0  0
   -3.1359    0.9348    0.3304 O   0  0  0  0  0  0  0  0  0  0  0  0
   -2.0698    0.7415   -0.8819 P   0  0  0  0  0  5  0  0  0  0  0  0
   -2.7775    1.2489   -2.6251 S   0  0  0  0  0  0  0  0  0  0  0  0
   -1.8299   -0.8646   -0.7650 O   0  0  0  0  0  0  0  0  0  0  0  0
   -2.9512   -1.7339   -0.7262 C   0  0  0  0  0  0  0  0  0  0  0  0
   -2.5387   -3.1098   -1.2347 C   0  0  0  0  0  0  0  0  0  0  0  0
   -2.1238   -3.0808   -2.6998 C   0  0  0  0  0  0  0  0  0  0  0  0
   -0.2503    1.5727   -0.2508 S   0  0  0  0  0  0  0  0  0  0  0  0
    0.9130    0.8829   -1.4591 C   0  0  0  0  0  0  0  0  0  0  0  0
    2.3430    1.1242   -1.0137 C   0  0  0  0  0  0  0  0  0  0  0  0
    2.9819    2.0574   -1.5102 O   0  0  0  0  0  0  0  0  0  0  0  0
    2.9038    0.2786   -0.0602 N   0  0  0  0  0  0  0  0  0  0  0  0
    2.2462   -0.8745    0.5513 C   0  0  0  0  0  0  0  0  0  0  0  0
    3.0090   -2.1576    0.2238 C   0  0  0  0  0  0  0  0  0  0  0  0
    4.5313   -1.9851    0.2935 C   0  0  0  0  0  0  0  0  0  0  0  0
    4.9272   -0.7087    1.0283 C   0  0  0  0  0  0  0  0  0  0  0  0
    4.2923    0.5296    0.3661 C   0  0  2  0  0  0  0  0  0  0  0  0
    4.3732    1.7272    1.3166 C   0  0  0  0  0  0  0  0  0  0  0  0
  1  2  1  0
  2  3  1  0
  3  4  1  0
  4  5  1  0
  5  6  2  0
  5  7  1  0
  7  8  1  0
  8  9  1  0
  9 10  1  0
  5 11  1  0
 11 12  1  0
 12 13  1  0
 13 14  2  0
 13 15  1  0
 15 16  1  0
 16 17  1  0
 17 18  1  0
 18 19  1  0
 19 20  1  0
 20 21  1  1
 20 15  1  0
M  END
