
     RDKit          3D

 21 22  0  0  0  0  0  0  0  0999 V2000
   -2.6117    0.5719    1.2933 C   0  0  0  0  0  0  0  0  0  0  0  0
   -2.6067    0.0270   -0.1416 C   0  0  0  0  0  0  0  0  0  0  0  0
   -3.9225    0.5001   -0.8145 C   0  0  0  0  0  0  0  0  0  0  0  0
   -2.6710   -1.5123   -0.0853 C   0  0  0  0  0  0  0  0  0  0  0  0
   -1.4046    0.5706   -0.9913 C   0  0  2  0  0  0  0  0  0  0  0  0
   -1.4279   -0.0830   -2.2754 O   0  0  0  0  0  0  0  0  0  0  0  0
    0.0664    0.4935   -0.4742 C   0  0  2  0  0  0  0  0  0  0  0  0
    0.5596   -0.9348   -0.1445 C   0  0  0  0  0  0  0  0  0  0  0  0
    2.0700   -1.1111   -0.2034 C   0  0  0  0  0  0  0  0  0  0  0  0
    2.7983   -1.2010    0.9962 C   0  0  0  0  0  0  0  0  0  0  0  0
    4.1876   -1.3478    0.9833 C   0  0  0  0  0  0  0  0  0  0  0  0
    4.8659   -1.4170   -0.2290 C   0  0  0  0  0  0  0  0  0  0  0  0
    6.5762   -1.6007   -0.2414 Cl  0  0  0  0  0  0  0  0  0  0  0  0
    4.1683   -1.3486   -1.4297 C   0  0  0  0  0  0  0  0  0  0  0  0
    2.7782   -1.2012   -1.4179 C   0  0  0  0  0  0  0  0  0  0  0  0
    1.9793   -1.1641   -2.9497 Cl  0  0  0  0  0  0  0  0  0  0  0  0
    0.3527    1.5067    0.5343 N   0  0  0  0  0  0  0  0  0  0  0  0
    0.5881    1.3817    1.8691 C   0  0  0  0  0  0  0  0  0  0  0  0
    0.8174    2.5611    2.3974 N   0  0  0  0  0  0  0  0  0  0  0  0
    0.7114    3.3996    1.3286 C   0  0  0  0  0  0  0  0  0  0  0  0
    0.4170    2.8064    0.1704 N   0  0  0  0  0  0  0  0  0  0  0  0
  1  2  1  0
  2  3  1  0
  2  4  1  0
  2  5  1  0
  5  6  1  6
  5  7  1  0
  7  8  1  1
  8  9  1  0
  9 10  2  0
 10 11  1  0
 11 12  2  0
 12 13  1  0
 12 14  1  0
 14 15  2  0
 15 16  1  0
  7 17  1  0
 17 18  1  0
 18 19  2  0
 19 20  1  0
 20 21  2  0
 15  9  1  0
 21 17  1  0
M  END
