
     RDKit          3D

 25 27  0  0  0  0  0  0  0  0999 V2000
   -4.1766    1.5194   -0.5814 C   0  0  0  0  0  0  0  0  0  0  0  0
   -3.5602    0.0957   -0.5926 C   0  0  0  0  0  0  0  0  0  0  0  0
   -4.7333   -0.8936   -0.4621 C   0  0  0  0  0  0  0  0  0  0  0  0
   -2.8922   -0.0942   -1.9657 C   0  0  0  0  0  0  0  0  0  0  0  0
   -2.5279   -0.0163    0.5864 C   0  0  1  0  0  0  0  0  0  0  0  0
   -3.1927    0.0423    1.8634 O   0  0  0  0  0  0  0  0  0  0  0  0
   -1.5075   -1.1945    0.6212 C   0  0  2  0  0  0  0  0  0  0  0  0
   -0.5586   -1.0985   -0.4501 O   0  0  0  0  0  0  0  0  0  0  0  0
    0.6217   -0.4473   -0.2380 C   0  0  0  0  0  0  0  0  0  0  0  0
    0.9388    0.3721    0.8427 C   0  0  0  0  0  0  0  0  0  0  0  0
    2.2005    0.9786    0.9194 C   0  0  0  0  0  0  0  0  0  0  0  0
    3.1682    0.7855   -0.0792 C   0  0  0  0  0  0  0  0  0  0  0  0
    4.4959    1.4155    0.0144 C   0  0  0  0  0  0  0  0  0  0  0  0
    5.6692    0.6521   -0.1093 C   0  0  0  0  0  0  0  0  0  0  0  0
    6.9307    1.2466   -0.0169 C   0  0  0  0  0  0  0  0  0  0  0  0
    7.0410    2.6175    0.2016 C   0  0  0  0  0  0  0  0  0  0  0  0
    5.8915    3.3937    0.3276 C   0  0  0  0  0  0  0  0  0  0  0  0
    4.6307    2.7972    0.2349 C   0  0  0  0  0  0  0  0  0  0  0  0
    2.8280   -0.0318   -1.1661 C   0  0  0  0  0  0  0  0  0  0  0  0
    1.5696   -0.6366   -1.2442 C   0  0  0  0  0  0  0  0  0  0  0  0
   -2.1344   -2.5188    0.5952 N   0  0  0  0  0  0  0  0  0  0  0  0
   -2.7950   -3.1172    1.6306 C   0  0  0  0  0  0  0  0  0  0  0  0
   -3.1578   -4.3307    1.2858 N   0  0  0  0  0  0  0  0  0  0  0  0
   -2.6791   -4.4421    0.0125 C   0  0  0  0  0  0  0  0  0  0  0  0
   -2.0453   -3.3657   -0.4571 N   0  0  0  0  0  0  0  0  0  0  0  0
  1  2  1  0
  2  3  1  0
  2  4  1  0
  2  5  1  0
  5  6  1  1
  5  7  1  0
  7  8  1  6
  8  9  1  0
  9 10  2  0
 10 11  1  0
 11 12  2  0
 12 13  1  0
 13 14  2  0
 14 15  1  0
 15 16  2  0
 16 17  1  0
 17 18  2  0
 12 19  1  0
 19 20  2  0
  7 21  1  0
 21 22  1  0
 22 23  2  0
 23 24  1  0
 24 25  2  0
 20  9  1  0
 25 21  1  0
 18 13  1  0
M  END
