
     RDKit          3D

 26 27  0  0  0  0  0  0  0  0999 V2000
   -3.8237    0.0082   -3.7860 N   0  0  0  0  0  0  0  0  0  0  0  0
   -3.1421   -0.1467   -2.8576 C   0  0  0  0  0  0  0  0  0  0  0  0
   -2.2688   -0.3212   -1.7304 C   0  0  0  0  0  0  0  0  0  0  0  0
   -1.0040    0.1033   -1.8379 N   0  0  0  0  0  0  0  0  0  0  0  0
   -0.4312   -0.2007   -0.6486 N   0  0  0  0  0  0  0  0  0  0  0  0
    0.9142    0.1636   -0.4132 C   0  0  0  0  0  0  0  0  0  0  0  0
    1.9165   -0.2560   -1.3035 C   0  0  0  0  0  0  0  0  0  0  0  0
    1.6326   -1.3469   -2.6177 Cl  0  0  0  0  0  0  0  0  0  0  0  0
    3.2478    0.1273   -1.0941 C   0  0  0  0  0  0  0  0  0  0  0  0
    3.6010    0.9394   -0.0086 C   0  0  0  0  0  0  0  0  0  0  0  0
    5.0401    1.3313    0.2269 C   0  0  0  0  0  0  0  0  0  0  0  0
    5.1654    2.5606    0.7963 F   0  0  0  0  0  0  0  0  0  0  0  0
    5.7779    1.3678   -0.9150 F   0  0  0  0  0  0  0  0  0  0  0  0
    5.6727    0.4627    1.0604 F   0  0  0  0  0  0  0  0  0  0  0  0
    2.5953    1.3525    0.8762 C   0  0  0  0  0  0  0  0  0  0  0  0
    1.2598    0.9783    0.6756 C   0  0  0  0  0  0  0  0  0  0  0  0
    0.1047    1.6608    1.7686 Cl  0  0  0  0  0  0  0  0  0  0  0  0
   -1.3250   -0.8496    0.2133 C   0  0  0  0  0  0  0  0  0  0  0  0
   -0.9767   -1.3466    1.4314 N   0  0  0  0  0  0  0  0  0  0  0  0
   -2.5187   -0.9042   -0.4768 C   0  0  0  0  0  0  0  0  0  0  0  0
   -4.0411   -1.6548    0.0753 S   0  0  0  0  0  4  0  0  0  0  0  0
   -5.0832   -1.3248   -0.9538 O   0  0  0  0  0  0  0  0  0  0  0  0
   -4.2977   -0.6615    1.5675 C   0  0  0  0  0  0  0  0  0  0  0  0
   -4.1308    0.6680    1.3546 F   0  0  0  0  0  0  0  0  0  0  0  0
   -5.5424   -0.8321    2.0818 F   0  0  0  0  0  0  0  0  0  0  0  0
   -3.4286   -1.0183    2.5546 F   0  0  0  0  0  0  0  0  0  0  0  0
  1  2  3  0
  2  3  1  0
  3  4  2  0
  4  5  1  0
  5  6  1  0
  6  7  2  0
  7  8  1  0
  7  9  1  0
  9 10  2  0
 10 11  1  0
 11 12  1  0
 11 13  1  0
 11 14  1  0
 10 15  1  0
 15 16  2  0
 16 17  1  0
  5 18  1  0
 18 19  1  0
 18 20  2  0
 20 21  1  0
 21 22  2  0
 21 23  1  1
 23 24  1  0
 23 25  1  0
 23 26  1  0
 20  3  1  0
 16  6  1  0
M  END
