
     RDKit          3D

 25 27  0  0  0  0  0  0  0  0999 V2000
   -2.8758    2.4974   -0.3013 C   0  0  0  0  0  0  0  0  0  0  0  0
   -3.6782    1.2100   -0.0362 C   0  0  0  0  0  0  0  0  0  0  0  0
   -5.1823    1.5469   -0.1900 C   0  0  0  0  0  0  0  0  0  0  0  0
   -3.4600    0.7723    1.4245 C   0  0  0  0  0  0  0  0  0  0  0  0
   -3.2979    0.0830   -1.0576 C   0  0  1  0  0  0  0  0  0  0  0  0
   -3.7760    0.5015   -2.3567 O   0  0  0  0  0  0  0  0  0  0  0  0
   -1.7889   -0.3005   -1.1598 C   0  0  1  0  0  0  0  0  0  0  0  0
   -1.2182   -0.5501    0.1270 O   0  0  0  0  0  0  0  0  0  0  0  0
    0.1324   -0.4056    0.2901 C   0  0  0  0  0  0  0  0  0  0  0  0
    1.0732   -0.2075   -0.7188 C   0  0  0  0  0  0  0  0  0  0  0  0
    2.4329   -0.0947   -0.3991 C   0  0  0  0  0  0  0  0  0  0  0  0
    2.8823   -0.1842    0.9276 C   0  0  0  0  0  0  0  0  0  0  0  0
    4.3119   -0.0717    1.2530 C   0  0  0  0  0  0  0  0  0  0  0  0
    5.0552    1.0550    0.8633 C   0  0  0  0  0  0  0  0  0  0  0  0
    6.4145    1.1616    1.1689 C   0  0  0  0  0  0  0  0  0  0  0  0
    7.0538    0.1414    1.8685 C   0  0  0  0  0  0  0  0  0  0  0  0
    6.3355   -0.9842    2.2642 C   0  0  0  0  0  0  0  0  0  0  0  0
    4.9757   -1.0885    1.9596 C   0  0  0  0  0  0  0  0  0  0  0  0
    1.9249   -0.3929    1.9303 C   0  0  0  0  0  0  0  0  0  0  0  0
    0.5676   -0.5024    1.6134 C   0  0  0  0  0  0  0  0  0  0  0  0
   -1.6716   -1.5149   -1.9776 N   0  0  0  0  0  0  0  0  0  0  0  0
   -1.4903   -2.8024   -1.5736 C   0  0  0  0  0  0  0  0  0  0  0  0
   -1.4902   -3.5963   -2.6197 N   0  0  0  0  0  0  0  0  0  0  0  0
   -1.6923   -2.7389   -3.6608 C   0  0  0  0  0  0  0  0  0  0  0  0
   -1.8337   -1.4541   -3.3214 N   0  0  0  0  0  0  0  0  0  0  0  0
  1  2  1  0
  2  3  1  0
  2  4  1  0
  2  5  1  0
  5  6  1  6
  5  7  1  0
  7  8  1  1
  8  9  1  0
  9 10  2  0
 10 11  1  0
 11 12  2  0
 12 13  1  0
 13 14  2  0
 14 15  1  0
 15 16  2  0
 16 17  1  0
 17 18  2  0
 12 19  1  0
 19 20  2  0
  7 21  1  0
 21 22  1  0
 22 23  2  0
 23 24  1  0
 24 25  2  0
 20  9  1  0
 25 21  1  0
 18 13  1  0
M  END
