
     RDKit          3D

 21 21  0  0  0  0  0  0  0  0999 V2000
   -1.9510    4.6992   -0.7904 C   0  0  0  0  0  0  0  0  0  0  0  0
   -2.2565    3.2112   -0.8094 C   0  0  0  0  0  0  0  0  0  0  0  0
   -1.6235    2.4852    0.3696 C   0  0  0  0  0  0  0  0  0  0  0  0
   -1.9562    1.1071    0.2739 O   0  0  0  0  0  0  0  0  0  0  0  0
   -2.5040    0.3212    1.5860 P   0  0  0  0  0  5  0  0  0  0  0  0
   -4.1508    1.0725    2.3236 S   0  0  0  0  0  0  0  0  0  0  0  0
   -2.7650   -1.1434    0.9160 O   0  0  0  0  0  0  0  0  0  0  0  0
   -3.5890   -1.2496   -0.2388 C   0  0  0  0  0  0  0  0  0  0  0  0
   -3.7561   -2.7308   -0.5608 C   0  0  0  0  0  0  0  0  0  0  0  0
   -4.5941   -2.9501   -1.8098 C   0  0  0  0  0  0  0  0  0  0  0  0
   -0.8813   -0.0014    2.8856 S   0  0  0  0  0  0  0  0  0  0  0  0
    0.2956   -0.9279    1.8597 C   0  0  0  0  0  0  0  0  0  0  0  0
    1.4221   -0.0381    1.3395 C   0  0  0  0  0  0  0  0  0  0  0  0
    1.2585    1.1673    1.1540 O   0  0  0  0  0  0  0  0  0  0  0  0
    2.6436   -0.6792    1.0922 N   0  0  0  0  0  0  0  0  0  0  0  0
    2.6805   -2.0909    0.6830 C   0  0  0  0  0  0  0  0  0  0  0  0
    3.5989   -2.3278   -0.5269 C   0  0  0  0  0  0  0  0  0  0  0  0
    3.5659   -1.1425   -1.4963 C   0  0  0  0  0  0  0  0  0  0  0  0
    3.9262    0.1868   -0.8097 C   0  0  0  0  0  0  0  0  0  0  0  0
    3.8478    0.0818    0.7191 C   0  0  1  0  0  0  0  0  0  0  0  0
    4.0508    1.4322    1.4068 C   0  0  0  0  0  0  0  0  0  0  0  0
  1  2  1  0
  2  3  1  0
  3  4  1  0
  4  5  1  0
  5  6  2  0
  5  7  1  0
  7  8  1  0
  8  9  1  0
  9 10  1  0
  5 11  1  0
 11 12  1  0
 12 13  1  0
 13 14  2  0
 13 15  1  0
 15 16  1  0
 16 17  1  0
 17 18  1  0
 18 19  1  0
 19 20  1  0
 20 21  1  1
 20 15  1  0
M  END
