
     RDKit          3D

 20 21  0  0  0  0  0  0  0  0999 V2000
    3.2835    2.1902    1.9265 C   0  0  0  0  0  0  0  0  0  0  0  0
    3.6145    1.3391    0.7088 C   0  0  0  0  0  0  0  0  0  0  0  0
    2.4282    0.7028    0.1312 N   0  0  0  0  0  0  0  0  0  0  0  0
    2.0123   -0.5578    0.7536 C   0  0  0  0  0  0  0  0  0  0  0  0
    2.5237   -1.7858    0.0229 C   0  0  0  0  0  0  0  0  0  0  0  0
    1.6865    1.4483   -0.7814 C   0  0  0  0  0  0  0  0  0  0  0  0
    1.9738    2.6321   -1.0102 O   0  0  0  0  0  0  0  0  0  0  0  0
    0.5543    0.8075   -1.6264 C   0  0  1  0  0  0  0  0  0  0  0  0
    1.1904    0.2042   -2.8809 C   0  0  0  0  0  0  0  0  0  0  0  0
   -0.2795   -0.1829   -1.0551 O   0  0  0  0  0  0  0  0  0  0  0  0
   -1.3716    0.2229   -0.3222 C   0  0  0  0  0  0  0  0  0  0  0  0
   -1.5291    1.5126    0.1971 C   0  0  0  0  0  0  0  0  0  0  0  0
   -2.6554    1.8331    0.9527 C   0  0  0  0  0  0  0  0  0  0  0  0
   -3.6279    0.8682    1.2042 C   0  0  0  0  0  0  0  0  0  0  0  0
   -3.4883   -0.4354    0.7085 C   0  0  0  0  0  0  0  0  0  0  0  0
   -4.4673   -1.4083    0.9721 C   0  0  0  0  0  0  0  0  0  0  0  0
   -4.3351   -2.7087    0.4858 C   0  0  0  0  0  0  0  0  0  0  0  0
   -3.2224   -3.0538   -0.2710 C   0  0  0  0  0  0  0  0  0  0  0  0
   -2.2418   -2.0973   -0.5416 C   0  0  0  0  0  0  0  0  0  0  0  0
   -2.3489   -0.7728   -0.0624 C   0  0  0  0  0  0  0  0  0  0  0  0
  1  2  1  0
  2  3  1  0
  3  4  1  0
  4  5  1  0
  3  6  1  0
  6  7  2  0
  6  8  1  0
  8  9  1  6
  8 10  1  0
 10 11  1  0
 11 12  2  0
 12 13  1  0
 13 14  2  0
 14 15  1  0
 15 16  2  0
 16 17  1  0
 17 18  2  0
 18 19  1  0
 19 20  2  0
 20 11  1  0
 20 15  1  0
M  END
