
     RDKit          3D

 20 21  0  0  0  0  0  0  0  0999 V2000
   -1.6312    2.2637   -1.3990 C   0  0  0  0  0  0  0  0  0  0  0  0
   -1.6586    1.0088   -0.4858 C   0  0  0  0  0  0  0  0  0  0  0  0
   -3.0542    0.3754   -0.6545 C   0  0  0  0  0  0  0  0  0  0  0  0
   -1.5150    1.5074    0.9593 C   0  0  0  0  0  0  0  0  0  0  0  0
   -0.4879    0.0561   -0.9208 C   0  0  2  0  0  0  0  0  0  0  0  0
   -0.7739   -0.4878   -2.2283 O   0  0  0  0  0  0  0  0  0  0  0  0
   -0.0332   -1.1450   -0.0358 C   0  0  1  0  0  0  0  0  0  0  0  0
    0.9027   -0.7857    1.1447 C   0  0  0  0  0  0  0  0  0  0  0  0
    2.2046   -0.1275    0.7365 C   0  0  0  0  0  0  0  0  0  0  0  0
    2.4971    1.1812    1.1468 C   0  0  0  0  0  0  0  0  0  0  0  0
    3.6941    1.7932    0.7671 C   0  0  0  0  0  0  0  0  0  0  0  0
    4.6094    1.0973   -0.0181 C   0  0  0  0  0  0  0  0  0  0  0  0
    6.0823    1.8520   -0.4872 Cl  0  0  0  0  0  0  0  0  0  0  0  0
    4.3406   -0.2078   -0.4219 C   0  0  0  0  0  0  0  0  0  0  0  0
    3.1437   -0.8202   -0.0425 C   0  0  0  0  0  0  0  0  0  0  0  0
   -1.1257   -2.0189    0.3695 N   0  0  0  0  0  0  0  0  0  0  0  0
   -1.7518   -2.9585   -0.3957 C   0  0  0  0  0  0  0  0  0  0  0  0
   -2.6210   -3.6164    0.3362 N   0  0  0  0  0  0  0  0  0  0  0  0
   -2.4841   -3.0400    1.5654 C   0  0  0  0  0  0  0  0  0  0  0  0
   -1.5775   -2.0618    1.6401 N   0  0  0  0  0  0  0  0  0  0  0  0
  1  2  1  0
  2  3  1  0
  2  4  1  0
  2  5  1  0
  5  6  1  6
  5  7  1  0
  7  8  1  1
  8  9  1  0
  9 10  2  0
 10 11  1  0
 11 12  2  0
 12 13  1  0
 12 14  1  0
 14 15  2  0
  7 16  1  0
 16 17  1  0
 17 18  2  0
 18 19  1  0
 19 20  2  0
 15  9  1  0
 20 16  1  0
M  END
