
     RDKit          3D

 20 21  0  0  0  0  0  0  0  0999 V2000
   -3.8553   -1.8696    1.6185 C   0  0  0  0  0  0  0  0  0  0  0  0
   -2.3485   -1.6711    1.5786 C   0  0  0  0  0  0  0  0  0  0  0  0
   -1.9101   -0.9661    0.2937 C   0  0  0  0  0  0  0  0  0  0  0  0
   -0.3860   -0.7761    0.2602 C   0  0  0  0  0  0  0  0  0  0  0  0
    0.1405    0.0227   -0.9707 C   0  0  1  0  0  0  0  0  0  0  0  0
   -0.4705   -0.5254   -2.1630 O   0  0  0  0  0  0  0  0  0  0  0  0
   -0.3770    1.4991   -0.9756 C   0  0  0  0  0  0  0  0  0  0  0  0
   -0.5180    2.1714    0.2967 N   0  0  0  0  0  0  0  0  0  0  0  0
   -1.6558    2.7076    0.8221 C   0  0  0  0  0  0  0  0  0  0  0  0
   -1.3892    3.2605    1.9821 N   0  0  0  0  0  0  0  0  0  0  0  0
   -0.0480    3.0544    2.1176 C   0  0  0  0  0  0  0  0  0  0  0  0
    0.5313    2.4017    1.1066 N   0  0  0  0  0  0  0  0  0  0  0  0
    1.6697   -0.1671   -1.1236 C   0  0  0  0  0  0  0  0  0  0  0  0
    2.5618    0.8963   -0.8714 C   0  0  0  0  0  0  0  0  0  0  0  0
    3.9503    0.7515   -0.9868 C   0  0  0  0  0  0  0  0  0  0  0  0
    4.4913   -0.4676   -1.3624 C   0  0  0  0  0  0  0  0  0  0  0  0
    6.1949   -0.6462   -1.5047 Cl  0  0  0  0  0  0  0  0  0  0  0  0
    3.6555   -1.5422   -1.6251 C   0  0  0  0  0  0  0  0  0  0  0  0
    2.2648   -1.3967   -1.5086 C   0  0  0  0  0  0  0  0  0  0  0  0
    1.3461   -2.8204   -1.8878 Cl  0  0  0  0  0  0  0  0  0  0  0  0
  1  2  1  0
  2  3  1  0
  3  4  1  0
  4  5  1  0
  5  6  1  6
  5  7  1  0
  7  8  1  0
  8  9  1  0
  9 10  2  0
 10 11  1  0
 11 12  2  0
  5 13  1  0
 13 14  2  0
 14 15  1  0
 15 16  2  0
 16 17  1  0
 16 18  1  0
 18 19  2  0
 19 20  1  0
 12  8  1  0
 19 13  1  0
M  END
