
     RDKit          3D

 21 21  0  0  0  0  0  0  0  0999 V2000
   -3.6708   -4.5550    1.5970 C   0  0  0  0  0  0  0  0  0  0  0  0
   -3.6963   -3.1069    1.1434 C   0  0  0  0  0  0  0  0  0  0  0  0
   -2.4850   -2.7609    0.2890 C   0  0  0  0  0  0  0  0  0  0  0  0
   -2.5791   -1.3962   -0.0935 O   0  0  0  0  0  0  0  0  0  0  0  0
   -1.2161   -0.5075   -0.2050 P   0  0  0  0  0  5  0  0  0  0  0  0
    0.0392   -1.2615   -1.5002 S   0  0  0  0  0  0  0  0  0  0  0  0
   -1.8908    0.9021   -0.6458 O   0  0  0  0  0  0  0  0  0  0  0  0
   -2.5092    1.0137   -1.9174 C   0  0  0  0  0  0  0  0  0  0  0  0
   -3.2928    2.3198   -1.9518 C   0  0  0  0  0  0  0  0  0  0  0  0
   -4.0184    2.5084   -3.2723 C   0  0  0  0  0  0  0  0  0  0  0  0
   -0.5778   -0.2200    1.7887 S   0  0  0  0  0  0  0  0  0  0  0  0
    0.1377    1.4425    1.7835 C   0  0  0  0  0  0  0  0  0  0  0  0
    1.1607    1.6044    0.6736 C   0  0  0  0  0  0  0  0  0  0  0  0
    0.8154    2.1421   -0.3826 O   0  0  0  0  0  0  0  0  0  0  0  0
    2.4571    1.1425    0.8721 N   0  0  0  0  0  0  0  0  0  0  0  0
    2.9254    0.3943    2.0374 C   0  0  0  0  0  0  0  0  0  0  0  0
    3.3369   -1.0199    1.6334 C   0  0  0  0  0  0  0  0  0  0  0  0
    4.1904   -1.0550    0.3614 C   0  0  0  0  0  0  0  0  0  0  0  0
    4.6277    0.3378   -0.0834 C   0  0  0  0  0  0  0  0  0  0  0  0
    3.4224    1.2868   -0.2347 C   0  0  2  0  0  0  0  0  0  0  0  0
    3.9207    2.7303   -0.3450 C   0  0  0  0  0  0  0  0  0  0  0  0
  1  2  1  0
  2  3  1  0
  3  4  1  0
  4  5  1  0
  5  6  2  0
  5  7  1  0
  7  8  1  0
  8  9  1  0
  9 10  1  0
  5 11  1  0
 11 12  1  0
 12 13  1  0
 13 14  2  0
 13 15  1  0
 15 16  1  0
 16 17  1  0
 17 18  1  0
 18 19  1  0
 19 20  1  0
 20 21  1  1
 20 15  1  0
M  END
