
     RDKit          3D

 24 25  0  0  0  0  0  0  0  0999 V2000
    0.2814    3.3362    2.0481 C   0  0  0  0  0  0  0  0  0  0  0  0
   -0.2349    2.2801    1.2398 O   0  0  0  0  0  0  0  0  0  0  0  0
   -1.2887    2.6374    0.4524 C   0  0  0  0  0  0  0  0  0  0  0  0
   -1.8286    3.7403    0.4909 O   0  0  0  0  0  0  0  0  0  0  0  0
   -1.7770    1.4887   -0.4553 C   0  0  2  0  0  0  0  0  0  0  0  0
   -3.2513    1.2326   -0.1122 C   0  0  0  0  0  0  0  0  0  0  0  0
   -0.8764    0.3072   -0.4085 N   0  0  0  0  0  0  0  0  0  0  0  0
    0.3596    0.4477   -1.0597 C   0  0  0  0  0  0  0  0  0  0  0  0
    0.6580    1.4902   -1.6516 O   0  0  0  0  0  0  0  0  0  0  0  0
    1.3365   -0.7278   -0.9929 C   0  0  0  0  0  0  0  0  0  0  0  0
    2.7323   -0.3018   -0.5953 C   0  0  0  0  0  0  0  0  0  0  0  0
    3.1085   -0.2776    0.7551 C   0  0  0  0  0  0  0  0  0  0  0  0
    4.3920    0.1276    1.1251 C   0  0  0  0  0  0  0  0  0  0  0  0
    5.3081    0.5185    0.1511 C   0  0  0  0  0  0  0  0  0  0  0  0
    4.9411    0.5080   -1.1932 C   0  0  0  0  0  0  0  0  0  0  0  0
    3.6585    0.1025   -1.5660 C   0  0  0  0  0  0  0  0  0  0  0  0
   -1.4456   -0.9792   -0.1985 C   0  0  0  0  0  0  0  0  0  0  0  0
   -1.5435   -1.4773    1.1194 C   0  0  0  0  0  0  0  0  0  0  0  0
   -1.0586   -0.6948    2.3091 C   0  0  0  0  0  0  0  0  0  0  0  0
   -2.1025   -2.7462    1.3280 C   0  0  0  0  0  0  0  0  0  0  0  0
   -2.5367   -3.5173    0.2532 C   0  0  0  0  0  0  0  0  0  0  0  0
   -2.4284   -3.0279   -1.0460 C   0  0  0  0  0  0  0  0  0  0  0  0
   -1.8970   -1.7530   -1.2921 C   0  0  0  0  0  0  0  0  0  0  0  0
   -1.8142   -1.2794   -2.7186 C   0  0  0  0  0  0  0  0  0  0  0  0
  1  2  1  0
  2  3  1  0
  3  4  2  0
  3  5  1  0
  5  6  1  1
  5  7  1  0
  7  8  1  0
  8  9  2  0
  8 10  1  0
 10 11  1  0
 11 12  2  0
 12 13  1  0
 13 14  2  0
 14 15  1  0
 15 16  2  0
  7 17  1  0
 17 18  2  0
 18 19  1  0
 18 20  1  0
 20 21  2  0
 21 22  1  0
 22 23  2  0
 23 24  1  0
 16 11  1  0
 23 17  1  0
M  END
