
     RDKit          3D

 24 26  0  0  0  0  0  0  0  0999 V2000
   -4.0239   -2.9178   -2.0112 C   0  0  0  0  0  0  0  0  0  0  0  0
   -3.6850   -1.6455   -1.2843 C   0  0  0  0  0  0  0  0  0  0  0  0
   -4.3972   -0.4201   -1.7878 C   0  0  0  0  0  0  0  0  0  0  0  0
   -2.8059   -1.6342   -0.2636 C   0  0  0  0  0  0  0  0  0  0  0  0
   -2.3814   -0.4705    0.5279 C   0  0  2  0  0  0  0  0  0  0  0  0
   -1.9544   -0.6807    1.9675 C   0  0  1  0  0  0  0  0  0  0  0  0
   -0.7820    0.0276    2.5298 C   0  0  0  0  0  0  0  0  0  0  0  0
   -0.7804    0.4766    3.6659 O   0  0  0  0  0  0  0  0  0  0  0  0
    0.2489    0.0792    1.6511 O   0  0  0  0  0  0  0  0  0  0  0  0
    1.3838    0.7607    2.1786 C   0  0  0  0  0  0  0  0  0  0  0  0
    2.3990    0.7710    1.1626 N   0  0  0  0  0  0  0  0  0  0  0  0
    3.3249   -0.2071    0.9963 C   0  0  0  0  0  0  0  0  0  0  0  0
    3.5035   -1.2144    1.6550 O   0  0  0  0  0  0  0  0  0  0  0  0
    4.1218    0.1726   -0.1722 C   0  0  0  0  0  0  0  0  0  0  0  0
    3.6340    1.3201   -0.6491 C   0  0  0  0  0  0  0  0  0  0  0  0
    4.1663    2.0497   -1.8233 C   0  0  0  0  0  0  0  0  0  0  0  0
    5.5370    1.4855   -2.2394 C   0  0  0  0  0  0  0  0  0  0  0  0
    5.5909   -0.0496   -2.1634 C   0  0  0  0  0  0  0  0  0  0  0  0
    5.2539   -0.5811   -0.7585 C   0  0  0  0  0  0  0  0  0  0  0  0
    2.5113    1.7223    0.2013 C   0  0  0  0  0  0  0  0  0  0  0  0
    1.8434    2.7256    0.0336 O   0  0  0  0  0  0  0  0  0  0  0  0
   -3.2474    0.0626    1.6581 C   0  0  0  0  0  0  0  0  0  0  0  0
   -4.5385   -0.6261    2.0327 C   0  0  0  0  0  0  0  0  0  0  0  0
   -3.3046    1.5632    1.8233 C   0  0  0  0  0  0  0  0  0  0  0  0
  1  2  1  0
  2  3  1  0
  2  4  2  3
  5  4  1  1
  5  6  1  0
  6  7  1  6
  7  8  2  0
  7  9  1  0
  9 10  1  0
 10 11  1  0
 11 12  1  0
 12 13  2  0
 12 14  1  0
 14 15  2  0
 15 16  1  0
 16 17  1  0
 17 18  1  0
 18 19  1  0
 15 20  1  0
 20 21  2  0
  6 22  1  0
 22 23  1  0
 22 24  1  0
 22  5  1  0
 20 11  1  0
 19 14  1  0
M  END
