
     RDKit          3D

 26 28  0  0  0  0  0  0  0  0999 V2000
    3.2985    0.3837   -1.5538 C   0  0  0  0  0  0  0  0  0  0  0  0
    4.1121    0.3861   -0.2807 C   0  0  0  0  0  0  0  0  0  0  0  0
    4.5678    1.7666    0.1284 C   0  0  0  0  0  0  0  0  0  0  0  0
    4.9842   -0.8333   -0.0296 C   0  0  1  0  0  0  0  0  0  0  0  0
    6.3292   -0.6908    0.5509 C   0  0  0  0  0  0  0  0  0  0  0  0
    7.4619   -0.3678   -0.0923 C   0  0  0  0  0  0  0  0  0  0  0  0
    8.9551   -0.2601    0.7715 Cl  0  0  0  0  0  0  0  0  0  0  0  0
    7.4949   -0.0446   -1.7875 Cl  0  0  0  0  0  0  0  0  0  0  0  0
    3.7696   -0.5824    0.8443 C   0  0  2  0  0  0  0  0  0  0  0  0
    2.6030   -1.4906    0.7613 C   0  0  0  0  0  0  0  0  0  0  0  0
    2.7240   -2.7047    0.7093 O   0  0  0  0  0  0  0  0  0  0  0  0
    1.4384   -0.7984    0.7832 O   0  0  0  0  0  0  0  0  0  0  0  0
    0.2803   -1.6312    0.7055 C   0  0  0  0  0  0  0  0  0  0  0  0
   -0.9364   -0.7443    0.7672 C   0  0  0  0  0  0  0  0  0  0  0  0
   -1.2746   -0.0892    1.9614 C   0  0  0  0  0  0  0  0  0  0  0  0
   -2.3902    0.7483    2.0215 C   0  0  0  0  0  0  0  0  0  0  0  0
   -3.1829    0.9380    0.8900 C   0  0  0  0  0  0  0  0  0  0  0  0
   -2.8662    0.2747   -0.2976 C   0  0  0  0  0  0  0  0  0  0  0  0
   -3.5848    0.4418   -1.4608 O   0  0  0  0  0  0  0  0  0  0  0  0
   -4.9572    0.3897   -1.3714 C   0  0  0  0  0  0  0  0  0  0  0  0
   -5.6314   -0.6300   -0.6948 C   0  0  0  0  0  0  0  0  0  0  0  0
   -7.0268   -0.6379   -0.6675 C   0  0  0  0  0  0  0  0  0  0  0  0
   -7.7442    0.3602   -1.3283 C   0  0  0  0  0  0  0  0  0  0  0  0
   -7.0692    1.3622   -2.0257 C   0  0  0  0  0  0  0  0  0  0  0  0
   -5.6740    1.3729   -2.0542 C   0  0  0  0  0  0  0  0  0  0  0  0
   -1.7371   -0.5449   -0.3662 C   0  0  0  0  0  0  0  0  0  0  0  0
  1  2  1  0
  2  3  1  0
  2  4  1  0
  4  5  1  1
  5  6  2  3
  6  7  1  0
  6  8  1  0
  4  9  1  0
  9 10  1  6
 10 11  2  0
 10 12  1  0
 12 13  1  0
 13 14  1  0
 14 15  2  0
 15 16  1  0
 16 17  2  0
 17 18  1  0
 18 19  1  0
 19 20  1  0
 20 21  2  0
 21 22  1  0
 22 23  2  0
 23 24  1  0
 24 25  2  0
 18 26  2  0
  9  2  1  0
 26 14  1  0
 25 20  1  0
M  END
