
     RDKit          3D

 25 27  0  0  0  0  0  0  0  0999 V2000
   -4.6689   -0.0399    0.8757 C   0  0  0  0  0  0  0  0  0  0  0  0
   -4.2057   -0.4112   -0.5455 C   0  0  0  0  0  0  0  0  0  0  0  0
   -5.4156   -0.2122   -1.4922 C   0  0  0  0  0  0  0  0  0  0  0  0
   -3.8338   -1.9078   -0.5702 C   0  0  0  0  0  0  0  0  0  0  0  0
   -3.0220    0.4859   -1.0450 C   0  0  2  0  0  0  0  0  0  0  0  0
   -2.7424    0.1045   -2.4178 O   0  0  0  0  0  0  0  0  0  0  0  0
   -1.6831    0.4195   -0.2555 C   0  0  1  0  0  0  0  0  0  0  0  0
   -0.6923    1.1087   -1.0630 O   0  0  0  0  0  0  0  0  0  0  0  0
    0.5909    0.7111   -0.8114 C   0  0  0  0  0  0  0  0  0  0  0  0
    1.0256   -0.5926   -1.0370 C   0  0  0  0  0  0  0  0  0  0  0  0
    2.3535   -0.9348   -0.7666 C   0  0  0  0  0  0  0  0  0  0  0  0
    3.2698    0.0207   -0.2910 C   0  0  0  0  0  0  0  0  0  0  0  0
    4.6680   -0.3447    0.0058 C   0  0  0  0  0  0  0  0  0  0  0  0
    5.2773    0.0402    1.2147 C   0  0  0  0  0  0  0  0  0  0  0  0
    6.6023   -0.3005    1.4965 C   0  0  0  0  0  0  0  0  0  0  0  0
    7.3433   -1.0381    0.5768 C   0  0  0  0  0  0  0  0  0  0  0  0
    6.7612   -1.4334   -0.6228 C   0  0  0  0  0  0  0  0  0  0  0  0
    5.4363   -1.0877   -0.9069 C   0  0  0  0  0  0  0  0  0  0  0  0
    2.8113    1.3384   -0.1096 C   0  0  0  0  0  0  0  0  0  0  0  0
    1.4844    1.6838   -0.3744 C   0  0  0  0  0  0  0  0  0  0  0  0
   -1.7193    1.0530    1.0508 N   0  0  0  0  0  0  0  0  0  0  0  0
   -1.2775    0.5212    2.2251 C   0  0  0  0  0  0  0  0  0  0  0  0
   -1.4978    1.3693    3.2000 N   0  0  0  0  0  0  0  0  0  0  0  0
   -2.0450    2.4439    2.5597 C   0  0  0  0  0  0  0  0  0  0  0  0
   -2.2030    2.3010    1.2383 N   0  0  0  0  0  0  0  0  0  0  0  0
  1  2  1  0
  2  3  1  0
  2  4  1  0
  2  5  1  0
  5  6  1  6
  5  7  1  0
  7  8  1  6
  8  9  1  0
  9 10  2  0
 10 11  1  0
 11 12  2  0
 12 13  1  0
 13 14  2  0
 14 15  1  0
 15 16  2  0
 16 17  1  0
 17 18  2  0
 12 19  1  0
 19 20  2  0
  7 21  1  0
 21 22  1  0
 22 23  2  0
 23 24  1  0
 24 25  2  0
 20  9  1  0
 25 21  1  0
 18 13  1  0
M  END
