
     RDKit          3D

 20 21  0  0  0  0  0  0  0  0999 V2000
    2.6457    0.0207    1.7606 C   0  0  0  0  0  0  0  0  0  0  0  0
    2.5809   -0.5456    0.3259 C   0  0  0  0  0  0  0  0  0  0  0  0
    2.0718   -1.9950    0.3974 C   0  0  0  0  0  0  0  0  0  0  0  0
    4.0239   -0.5699   -0.2284 C   0  0  0  0  0  0  0  0  0  0  0  0
    1.6873    0.3728   -0.5796 C   0  0  1  0  0  0  0  0  0  0  0  0
    1.8007    0.0303   -1.9695 O   0  0  0  0  0  0  0  0  0  0  0  0
    0.1816    0.4647   -0.1926 C   0  0  2  0  0  0  0  0  0  0  0  0
   -0.7251   -0.5136   -0.9730 C   0  0  0  0  0  0  0  0  0  0  0  0
   -2.1000   -0.6747   -0.3604 C   0  0  0  0  0  0  0  0  0  0  0  0
   -3.1811    0.0883   -0.8247 C   0  0  0  0  0  0  0  0  0  0  0  0
   -4.4448   -0.0487   -0.2459 C   0  0  0  0  0  0  0  0  0  0  0  0
   -4.6338   -0.9485    0.7998 C   0  0  0  0  0  0  0  0  0  0  0  0
   -6.1908   -1.1190    1.5118 Cl  0  0  0  0  0  0  0  0  0  0  0  0
   -3.5693   -1.7120    1.2729 C   0  0  0  0  0  0  0  0  0  0  0  0
   -2.3048   -1.5746    0.6958 C   0  0  0  0  0  0  0  0  0  0  0  0
   -0.2763    1.8455   -0.3701 N   0  0  0  0  0  0  0  0  0  0  0  0
   -0.3574    2.5706   -1.5205 C   0  0  0  0  0  0  0  0  0  0  0  0
   -0.8221    3.7690   -1.2525 N   0  0  0  0  0  0  0  0  0  0  0  0
   -0.9861    3.7373    0.1029 C   0  0  0  0  0  0  0  0  0  0  0  0
   -0.6488    2.5872    0.6917 N   0  0  0  0  0  0  0  0  0  0  0  0
  1  2  1  0
  2  3  1  0
  2  4  1  0
  2  5  1  0
  5  6  1  6
  5  7  1  0
  7  8  1  6
  8  9  1  0
  9 10  2  0
 10 11  1  0
 11 12  2  0
 12 13  1  0
 12 14  1  0
 14 15  2  0
  7 16  1  0
 16 17  1  0
 17 18  2  0
 18 19  1  0
 19 20  2  0
 15  9  1  0
 20 16  1  0
M  END
