
     RDKit          3D

 26 28  0  0  0  0  0  0  0  0999 V2000
   -6.2495   -0.9643   -2.0002 C   0  0  0  0  0  0  0  0  0  0  0  0
   -5.1048   -0.7744   -1.0340 C   0  0  0  0  0  0  0  0  0  0  0  0
   -5.3411   -1.4493    0.2995 C   0  0  0  0  0  0  0  0  0  0  0  0
   -3.6968   -0.7379   -1.6159 C   0  0  2  0  0  0  0  0  0  0  0  0
   -2.5553   -1.4099   -0.9543 C   0  0  0  0  0  0  0  0  0  0  0  0
   -2.6093   -2.5707   -0.5763 O   0  0  0  0  0  0  0  0  0  0  0  0
   -1.4646   -0.6042   -0.8990 O   0  0  0  0  0  0  0  0  0  0  0  0
   -0.3259   -1.2371   -0.3060 C   0  0  0  0  0  0  0  0  0  0  0  0
    0.8333   -0.2706   -0.2659 C   0  0  0  0  0  0  0  0  0  0  0  0
    0.6520    1.0715    0.1024 C   0  0  0  0  0  0  0  0  0  0  0  0
    1.7377    1.9491    0.1590 C   0  0  0  0  0  0  0  0  0  0  0  0
    3.0220    1.4913   -0.1321 C   0  0  0  0  0  0  0  0  0  0  0  0
    3.2196    0.1490   -0.4604 C   0  0  0  0  0  0  0  0  0  0  0  0
    4.4572   -0.3636   -0.7810 O   0  0  0  0  0  0  0  0  0  0  0  0
    5.5020   -0.0599    0.0623 C   0  0  0  0  0  0  0  0  0  0  0  0
    6.7014    0.3347   -0.5315 C   0  0  0  0  0  0  0  0  0  0  0  0
    7.8089    0.6247    0.2664 C   0  0  0  0  0  0  0  0  0  0  0  0
    7.7189    0.5060    1.6546 C   0  0  0  0  0  0  0  0  0  0  0  0
    6.5253    0.0915    2.2466 C   0  0  0  0  0  0  0  0  0  0  0  0
    5.4169   -0.2020    1.4504 C   0  0  0  0  0  0  0  0  0  0  0  0
    2.1326   -0.7243   -0.5415 C   0  0  0  0  0  0  0  0  0  0  0  0
   -4.3401    0.5379   -1.1134 C   0  0  2  0  0  0  0  0  0  0  0  0
   -3.9176    1.2171    0.1221 C   0  0  0  0  0  0  0  0  0  0  0  0
   -4.6599    2.0200    0.9019 C   0  0  0  0  0  0  0  0  0  0  0  0
   -6.3102    2.3789    0.5466 Cl  0  0  0  0  0  0  0  0  0  0  0  0
   -3.9724    2.7382    2.3153 Cl  0  0  0  0  0  0  0  0  0  0  0  0
  1  2  1  0
  2  3  1  0
  2  4  1  0
  4  5  1  1
  5  6  2  0
  5  7  1  0
  7  8  1  0
  8  9  1  0
  9 10  2  0
 10 11  1  0
 11 12  2  0
 12 13  1  0
 13 14  1  0
 14 15  1  0
 15 16  2  0
 16 17  1  0
 17 18  2  0
 18 19  1  0
 19 20  2  0
 13 21  2  0
  4 22  1  0
 22 23  1  1
 23 24  2  3
 24 25  1  0
 24 26  1  0
 22  2  1  0
 21  9  1  0
 20 15  1  0
M  END
