
     RDKit          3D

 19 19  0  0  0  0  0  0  0  0999 V2000
   -2.5705    3.1587    1.2383 C   0  0  0  0  0  0  0  0  0  0  0  0
   -2.9750    1.7125    1.0317 C   0  0  0  0  0  0  0  0  0  0  0  0
   -1.8198    0.8825    0.8372 O   0  0  0  0  0  0  0  0  0  0  0  0
   -1.3647    0.7784   -0.4444 C   0  0  0  0  0  0  0  0  0  0  0  0
   -1.8420    1.3819   -1.4002 O   0  0  0  0  0  0  0  0  0  0  0  0
   -0.2453   -0.2487   -0.5892 C   0  0  1  0  0  0  0  0  0  0  0  0
    0.9672   -0.1961    0.7761 S   0  0  0  0  0  0  0  0  0  0  0  0
    2.1372    1.4721    0.2694 P   0  0  0  0  0  5  0  0  0  0  0  0
    1.3566    3.2513    0.3643 S   0  0  0  0  0  0  0  0  0  0  0  0
    3.5199    1.3575    1.1206 O   0  0  0  0  0  0  0  0  0  0  0  0
    3.4885    1.6030    2.5137 C   0  0  0  0  0  0  0  0  0  0  0  0
    2.7153    1.1881   -1.2248 O   0  0  0  0  0  0  0  0  0  0  0  0
    3.6810    0.1739   -1.4210 C   0  0  0  0  0  0  0  0  0  0  0  0
   -0.7857   -1.6529   -0.8051 C   0  0  0  0  0  0  0  0  0  0  0  0
   -1.5072   -2.3294    0.1935 C   0  0  0  0  0  0  0  0  0  0  0  0
   -2.0026   -3.6151   -0.0317 C   0  0  0  0  0  0  0  0  0  0  0  0
   -1.7877   -4.2417   -1.2566 C   0  0  0  0  0  0  0  0  0  0  0  0
   -1.0779   -3.5841   -2.2584 C   0  0  0  0  0  0  0  0  0  0  0  0
   -0.5805   -2.2985   -2.0359 C   0  0  0  0  0  0  0  0  0  0  0  0
  1  2  1  0
  2  3  1  0
  3  4  1  0
  4  5  2  0
  4  6  1  0
  6  7  1  1
  7  8  1  0
  8  9  2  0
  8 10  1  0
 10 11  1  0
  8 12  1  0
 12 13  1  0
  6 14  1  0
 14 15  2  0
 15 16  1  0
 16 17  2  0
 17 18  1  0
 18 19  2  0
 19 14  1  0
M  END
