
     RDKit          3D

 24 26  0  0  0  0  0  0  0  0999 V2000
   -2.0670   -0.0136   -2.8345 N   0  0  0  0  0  0  0  0  0  0  0  0
   -1.7471   -0.0848   -1.7210 C   0  0  0  0  0  0  0  0  0  0  0  0
   -1.3755   -0.1593   -0.2825 C   0  0  1  0  0  0  0  0  0  0  0  0
    0.0697    0.4109   -0.1326 C   0  0  0  0  0  0  0  0  0  0  0  0
    1.1638   -0.4397   -0.8041 C   0  0  0  0  0  0  0  0  0  0  0  0
    2.5287    0.1770   -0.6114 C   0  0  0  0  0  0  0  0  0  0  0  0
    3.3345   -0.2072    0.4695 C   0  0  0  0  0  0  0  0  0  0  0  0
    4.5889    0.3773    0.6579 C   0  0  0  0  0  0  0  0  0  0  0  0
    5.0400    1.3507   -0.2308 C   0  0  0  0  0  0  0  0  0  0  0  0
    6.5852    2.0707    0.0028 Cl  0  0  0  0  0  0  0  0  0  0  0  0
    4.2474    1.7457   -1.3060 C   0  0  0  0  0  0  0  0  0  0  0  0
    2.9932    1.1613   -1.4952 C   0  0  0  0  0  0  0  0  0  0  0  0
   -2.4176    0.6920    0.5013 C   0  0  0  0  0  0  0  0  0  0  0  0
   -2.4452    2.1013    0.1735 N   0  0  0  0  0  0  0  0  0  0  0  0
   -3.2560    2.7488   -0.7043 C   0  0  0  0  0  0  0  0  0  0  0  0
   -2.9994    4.0359   -0.6649 N   0  0  0  0  0  0  0  0  0  0  0  0
   -2.0154    4.1270    0.2767 C   0  0  0  0  0  0  0  0  0  0  0  0
   -1.6472    2.9656    0.8249 N   0  0  0  0  0  0  0  0  0  0  0  0
   -1.4628   -1.5979    0.2879 C   0  0  0  0  0  0  0  0  0  0  0  0
   -1.0326   -1.8634    1.6056 C   0  0  0  0  0  0  0  0  0  0  0  0
   -1.1075   -3.1480    2.1492 C   0  0  0  0  0  0  0  0  0  0  0  0
   -1.6167   -4.1966    1.3920 C   0  0  0  0  0  0  0  0  0  0  0  0
   -2.0525   -3.9608    0.0924 C   0  0  0  0  0  0  0  0  0  0  0  0
   -1.9795   -2.6762   -0.4551 C   0  0  0  0  0  0  0  0  0  0  0  0
  1  2  3  0
  3  2  1  6
  3  4  1  0
  4  5  1  0
  5  6  1  0
  6  7  2  0
  7  8  1  0
  8  9  2  0
  9 10  1  0
  9 11  1  0
 11 12  2  0
  3 13  1  0
 13 14  1  0
 14 15  1  0
 15 16  2  0
 16 17  1  0
 17 18  2  0
  3 19  1  0
 19 20  2  0
 20 21  1  0
 21 22  2  0
 22 23  1  0
 23 24  2  0
 12  6  1  0
 18 14  1  0
 24 19  1  0
M  END
