
     RDKit          3D

 21 21  0  0  0  0  0  0  0  0999 V2000
   -0.3778    2.1542    2.8758 C   0  0  0  0  0  0  0  0  0  0  0  0
    0.5456    1.5173    1.8577 C   0  0  0  0  0  0  0  0  0  0  0  0
    0.1919    1.9942    0.5700 O   0  0  0  0  0  0  0  0  0  0  0  0
    0.5689    1.1149   -0.7402 P   0  0  1  0  0  5  0  0  0  0  0  0
    0.1335    2.0290   -2.3960 S   0  0  0  0  0  0  0  0  0  0  0  0
    2.1659    0.7682   -0.5308 N   0  0  0  0  0  0  0  0  0  0  0  0
    2.7137   -0.5442   -0.8671 C   0  0  1  0  0  0  0  0  0  0  0  0
    2.7559   -0.7603   -2.3791 C   0  0  0  0  0  0  0  0  0  0  0  0
    4.1304   -0.6819   -0.2788 C   0  0  0  0  0  0  0  0  0  0  0  0
    4.1594   -0.5940    1.2427 C   0  0  0  0  0  0  0  0  0  0  0  0
   -0.2223   -0.2649   -0.4532 O   0  0  0  0  0  0  0  0  0  0  0  0
   -1.5725   -0.4719   -0.4566 C   0  0  0  0  0  0  0  0  0  0  0  0
   -2.5024    0.5607   -0.3237 C   0  0  0  0  0  0  0  0  0  0  0  0
   -3.8822    0.2891   -0.3017 C   0  0  0  0  0  0  0  0  0  0  0  0
   -4.8628    1.4162   -0.1379 C   0  0  0  0  0  0  0  0  0  0  0  0
   -4.3312   -1.0350   -0.3802 C   0  0  0  0  0  0  0  0  0  0  0  0
   -3.4165   -2.0787   -0.5043 C   0  0  0  0  0  0  0  0  0  0  0  0
   -2.0479   -1.7853   -0.5471 C   0  0  0  0  0  0  0  0  0  0  0  0
   -1.1178   -2.8951   -0.6745 N   0  0  0  0  0  4  0  0  0  0  0  0
   -0.2451   -2.8222   -1.5524 O   0  0  0  0  0  0  0  0  0  0  0  0
   -1.2768   -3.8526    0.0984 O   0  0  0  0  0  1  0  0  0  0  0  0
  1  2  1  0
  2  3  1  0
  3  4  1  0
  4  5  2  0
  4  6  1  6
  6  7  1  0
  7  8  1  6
  7  9  1  0
  9 10  1  0
  4 11  1  0
 11 12  1  0
 12 13  2  0
 13 14  1  0
 14 15  1  0
 14 16  2  0
 16 17  1  0
 17 18  2  0
 18 19  1  0
 19 20  2  0
 19 21  1  0
 18 12  1  0
M  CHG  2  19   1  21  -1
M  END
