
     RDKit          3D

 20 21  0  0  0  0  0  0  0  0999 V2000
    3.6185   -1.7521    1.2738 C   0  0  0  0  0  0  0  0  0  0  0  0
    2.9001   -1.3080    0.0095 C   0  0  0  0  0  0  0  0  0  0  0  0
    1.4562   -0.8928    0.3009 C   0  0  0  0  0  0  0  0  0  0  0  0
    0.7325   -0.4728   -0.9897 C   0  0  0  0  0  0  0  0  0  0  0  0
   -0.6514    0.2411   -0.8261 C   0  0  1  0  0  0  0  0  0  0  0  0
   -1.2202    0.2645   -2.1524 O   0  0  0  0  0  0  0  0  0  0  0  0
   -1.5779   -0.5352    0.1530 C   0  0  0  0  0  0  0  0  0  0  0  0
   -1.9897   -1.8337   -0.3376 N   0  0  0  0  0  0  0  0  0  0  0  0
   -3.0849   -2.1228   -1.0921 C   0  0  0  0  0  0  0  0  0  0  0  0
   -3.1173   -3.4120   -1.3386 N   0  0  0  0  0  0  0  0  0  0  0  0
   -2.0138   -3.8781   -0.6839 C   0  0  0  0  0  0  0  0  0  0  0  0
   -1.2876   -2.9465   -0.0600 N   0  0  0  0  0  0  0  0  0  0  0  0
   -0.5777    1.7375   -0.4300 C   0  0  0  0  0  0  0  0  0  0  0  0
    0.6449    2.3333   -0.0482 C   0  0  0  0  0  0  0  0  0  0  0  0
    0.7362    3.6813    0.3205 C   0  0  0  0  0  0  0  0  0  0  0  0
   -0.3945    4.4824    0.3028 C   0  0  0  0  0  0  0  0  0  0  0  0
   -0.2827    6.1367    0.7558 Cl  0  0  0  0  0  0  0  0  0  0  0  0
   -1.6124    3.9505   -0.0927 C   0  0  0  0  0  0  0  0  0  0  0  0
   -1.7063    2.5999   -0.4639 C   0  0  0  0  0  0  0  0  0  0  0  0
   -3.2858    2.1022   -0.9853 Cl  0  0  0  0  0  0  0  0  0  0  0  0
  1  2  1  0
  2  3  1  0
  3  4  1  0
  4  5  1  0
  5  6  1  6
  5  7  1  0
  7  8  1  0
  8  9  1  0
  9 10  2  0
 10 11  1  0
 11 12  2  0
  5 13  1  0
 13 14  2  0
 14 15  1  0
 15 16  2  0
 16 17  1  0
 16 18  1  0
 18 19  2  0
 19 20  1  0
 12  8  1  0
 19 13  1  0
M  END
