
     RDKit          3D

 20 21  0  0  0  0  0  0  0  0999 V2000
   -2.3406   -0.0487   -1.8012 C   0  0  0  0  0  0  0  0  0  0  0  0
   -2.3335   -0.6563   -0.3864 C   0  0  0  0  0  0  0  0  0  0  0  0
   -2.8048   -2.1254   -0.5270 C   0  0  0  0  0  0  0  0  0  0  0  0
   -3.3791    0.0947    0.4615 C   0  0  0  0  0  0  0  0  0  0  0  0
   -0.8991   -0.6386    0.2678 C   0  0  2  0  0  0  0  0  0  0  0  0
   -0.9194   -1.4959    1.4319 O   0  0  0  0  0  0  0  0  0  0  0  0
   -0.2997    0.7342    0.6981 C   0  0  1  0  0  0  0  0  0  0  0  0
    0.9646    0.6207    1.5958 C   0  0  0  0  0  0  0  0  0  0  0  0
    2.1820   -0.0538    1.0042 C   0  0  0  0  0  0  0  0  0  0  0  0
    3.1549    0.6966    0.3276 C   0  0  0  0  0  0  0  0  0  0  0  0
    4.2808    0.0749   -0.2177 C   0  0  0  0  0  0  0  0  0  0  0  0
    4.4434   -1.3014   -0.0859 C   0  0  0  0  0  0  0  0  0  0  0  0
    5.8304   -2.0677   -0.7568 Cl  0  0  0  0  0  0  0  0  0  0  0  0
    3.4904   -2.0607    0.5873 C   0  0  0  0  0  0  0  0  0  0  0  0
    2.3646   -1.4382    1.1317 C   0  0  0  0  0  0  0  0  0  0  0  0
   -0.0765    1.6800   -0.3809 N   0  0  0  0  0  0  0  0  0  0  0  0
   -0.3793    3.0094   -0.3806 C   0  0  0  0  0  0  0  0  0  0  0  0
    0.0076    3.5501   -1.5121 N   0  0  0  0  0  0  0  0  0  0  0  0
    0.5548    2.4954   -2.1842 C   0  0  0  0  0  0  0  0  0  0  0  0
    0.5254    1.3310   -1.5321 N   0  0  0  0  0  0  0  0  0  0  0  0
  1  2  1  0
  2  3  1  0
  2  4  1  0
  2  5  1  0
  5  6  1  1
  5  7  1  0
  7  8  1  6
  8  9  1  0
  9 10  2  0
 10 11  1  0
 11 12  2  0
 12 13  1  0
 12 14  1  0
 14 15  2  0
  7 16  1  0
 16 17  1  0
 17 18  2  0
 18 19  1  0
 19 20  2  0
 15  9  1  0
 20 16  1  0
M  END
