
     RDKit          3D

 26 28  0  0  0  0  0  0  0  0999 V2000
   -4.2829   -1.0719   -0.6740 C   0  0  0  0  0  0  0  0  0  0  0  0
   -4.1012    0.1247    0.2328 C   0  0  0  0  0  0  0  0  0  0  0  0
   -5.0280    1.2669   -0.1070 C   0  0  0  0  0  0  0  0  0  0  0  0
   -2.7105    0.4820    0.7408 C   0  0  2  0  0  0  0  0  0  0  0  0
   -1.4958   -0.2655    0.3418 C   0  0  0  0  0  0  0  0  0  0  0  0
   -0.7304   -0.7417    1.1661 O   0  0  0  0  0  0  0  0  0  0  0  0
   -1.3441   -0.2809   -1.0055 O   0  0  0  0  0  0  0  0  0  0  0  0
   -0.1537   -0.9141   -1.4852 C   0  0  0  0  0  0  0  0  0  0  0  0
    0.8699    0.1412   -1.8118 C   0  0  0  0  0  0  0  0  0  0  0  0
    0.8269    0.8206   -3.0381 C   0  0  0  0  0  0  0  0  0  0  0  0
    1.7529    1.8254   -3.3253 C   0  0  0  0  0  0  0  0  0  0  0  0
    2.7294    2.1621   -2.3891 C   0  0  0  0  0  0  0  0  0  0  0  0
    2.7866    1.4853   -1.1717 C   0  0  0  0  0  0  0  0  0  0  0  0
    3.7468    1.8940   -0.2742 O   0  0  0  0  0  0  0  0  0  0  0  0
    4.4813    0.9104    0.3484 C   0  0  0  0  0  0  0  0  0  0  0  0
    5.1078   -0.1198   -0.3577 C   0  0  0  0  0  0  0  0  0  0  0  0
    5.8705   -1.0652    0.3291 C   0  0  0  0  0  0  0  0  0  0  0  0
    6.0175   -0.9716    1.7136 C   0  0  0  0  0  0  0  0  0  0  0  0
    5.4086    0.0709    2.4133 C   0  0  0  0  0  0  0  0  0  0  0  0
    4.6461    1.0178    1.7292 C   0  0  0  0  0  0  0  0  0  0  0  0
    1.8487    0.4935   -0.8713 C   0  0  0  0  0  0  0  0  0  0  0  0
   -3.7482   -0.0664    1.6998 C   0  0  2  0  0  0  0  0  0  0  0  0
   -3.6543   -1.4179    2.2764 C   0  0  0  0  0  0  0  0  0  0  0  0
   -4.6669   -2.2052    2.6714 C   0  0  0  0  0  0  0  0  0  0  0  0
   -4.3495   -3.7661    3.3419 Cl  0  0  0  0  0  0  0  0  0  0  0  0
   -6.3171   -1.7161    2.5391 Cl  0  0  0  0  0  0  0  0  0  0  0  0
  1  2  1  0
  2  3  1  0
  2  4  1  0
  4  5  1  6
  5  6  2  0
  5  7  1  0
  7  8  1  0
  8  9  1  0
  9 10  2  0
 10 11  1  0
 11 12  2  0
 12 13  1  0
 13 14  1  0
 14 15  1  0
 15 16  2  0
 16 17  1  0
 17 18  2  0
 18 19  1  0
 19 20  2  0
 13 21  2  0
  4 22  1  0
 22 23  1  6
 23 24  2  3
 24 25  1  0
 24 26  1  0
 22  2  1  0
 21  9  1  0
 20 15  1  0
M  END
