
     RDKit          3D

 20 21  0  0  0  0  0  0  0  0999 V2000
    3.9129   -0.6174    1.0076 C   0  0  0  0  0  0  0  0  0  0  0  0
    3.4786    0.1258   -0.2460 C   0  0  0  0  0  0  0  0  0  0  0  0
    2.5222   -0.6736   -1.1320 C   0  0  0  0  0  0  0  0  0  0  0  0
    1.1836   -1.1032   -0.5068 C   0  0  0  0  0  0  0  0  0  0  0  0
    0.1868    0.0146   -0.0707 C   0  0  1  0  0  0  0  0  0  0  0  0
    0.7813    0.7621    0.9986 O   0  0  0  0  0  0  0  0  0  0  0  0
    0.0106    1.0470   -1.2207 C   0  0  0  0  0  0  0  0  0  0  0  0
   -1.0074    2.0538   -0.9925 N   0  0  0  0  0  0  0  0  0  0  0  0
   -1.0416    3.0192   -0.0349 C   0  0  0  0  0  0  0  0  0  0  0  0
   -2.1037    3.7724   -0.2079 N   0  0  0  0  0  0  0  0  0  0  0  0
   -2.6864    3.2305   -1.3167 C   0  0  0  0  0  0  0  0  0  0  0  0
   -2.0462    2.1832   -1.8442 N   0  0  0  0  0  0  0  0  0  0  0  0
   -1.1096   -0.6947    0.3921 C   0  0  0  0  0  0  0  0  0  0  0  0
   -2.1613   -0.8939   -0.5317 C   0  0  0  0  0  0  0  0  0  0  0  0
   -3.3533   -1.5331   -0.1738 C   0  0  0  0  0  0  0  0  0  0  0  0
   -3.5182   -2.0153    1.1154 C   0  0  0  0  0  0  0  0  0  0  0  0
   -4.9795   -2.8056    1.5572 Cl  0  0  0  0  0  0  0  0  0  0  0  0
   -2.4953   -1.8778    2.0431 C   0  0  0  0  0  0  0  0  0  0  0  0
   -1.3004   -1.2368    1.6847 C   0  0  0  0  0  0  0  0  0  0  0  0
   -0.0793   -1.2099    2.9136 Cl  0  0  0  0  0  0  0  0  0  0  0  0
  1  2  1  0
  2  3  1  0
  3  4  1  0
  4  5  1  0
  5  6  1  1
  5  7  1  0
  7  8  1  0
  8  9  1  0
  9 10  2  0
 10 11  1  0
 11 12  2  0
  5 13  1  0
 13 14  2  0
 14 15  1  0
 15 16  2  0
 16 17  1  0
 16 18  1  0
 18 19  2  0
 19 20  1  0
 12  8  1  0
 19 13  1  0
M  END
