
     RDKit          3D

 21 21  0  0  0  0  0  0  0  0999 V2000
   -1.0769    4.4590    0.8008 C   0  0  0  0  0  0  0  0  0  0  0  0
   -0.4932    3.5324   -0.2466 C   0  0  0  0  0  0  0  0  0  0  0  0
   -0.9784    2.2222   -0.0064 O   0  0  0  0  0  0  0  0  0  0  0  0
   -0.2742    0.9649   -0.7521 P   0  0  2  0  0  5  0  0  0  0  0  0
   -0.3585    1.0658   -2.6925 S   0  0  0  0  0  0  0  0  0  0  0  0
   -0.9731   -0.3179    0.0181 N   0  0  0  0  0  0  0  0  0  0  0  0
   -2.4014   -0.5840   -0.1772 C   0  0  1  0  0  0  0  0  0  0  0  0
   -2.5367   -1.8493   -1.0233 C   0  0  0  0  0  0  0  0  0  0  0  0
   -3.0959   -0.7186    1.1911 C   0  0  0  0  0  0  0  0  0  0  0  0
   -4.6032   -0.9081    1.0899 C   0  0  0  0  0  0  0  0  0  0  0  0
    1.2238    1.0699   -0.1181 O   0  0  0  0  0  0  0  0  0  0  0  0
    2.0766    0.0007   -0.0790 C   0  0  0  0  0  0  0  0  0  0  0  0
    2.6819   -0.4411   -1.2568 C   0  0  0  0  0  0  0  0  0  0  0  0
    3.5914   -1.5104   -1.2355 C   0  0  0  0  0  0  0  0  0  0  0  0
    4.2510   -1.9683   -2.5048 C   0  0  0  0  0  0  0  0  0  0  0  0
    3.9280   -2.1074   -0.0132 C   0  0  0  0  0  0  0  0  0  0  0  0
    3.3512   -1.6561    1.1740 C   0  0  0  0  0  0  0  0  0  0  0  0
    2.4282   -0.6031    1.1319 C   0  0  0  0  0  0  0  0  0  0  0  0
    1.8475   -0.1498    2.3867 N   0  0  0  0  0  4  0  0  0  0  0  0
    0.6281    0.0773    2.4098 O   0  0  0  0  0  0  0  0  0  0  0  0
    2.6066   -0.0520    3.3607 O   0  0  0  0  0  1  0  0  0  0  0  0
  1  2  1  0
  2  3  1  0
  3  4  1  0
  4  5  2  0
  4  6  1  1
  6  7  1  0
  7  8  1  6
  7  9  1  0
  9 10  1  0
  4 11  1  0
 11 12  1  0
 12 13  2  0
 13 14  1  0
 14 15  1  0
 14 16  2  0
 16 17  1  0
 17 18  2  0
 18 19  1  0
 19 20  2  0
 19 21  1  0
 18 12  1  0
M  CHG  2  19   1  21  -1
M  END
