
     RDKit          3D

 20 21  0  0  0  0  0  0  0  0999 V2000
    3.5643   -1.3219    0.2398 C   0  0  0  0  0  0  0  0  0  0  0  0
    2.6563   -1.2683    1.4589 C   0  0  0  0  0  0  0  0  0  0  0  0
    1.1704   -1.1466    1.1082 C   0  0  0  0  0  0  0  0  0  0  0  0
    0.8188    0.1855    0.4238 C   0  0  0  0  0  0  0  0  0  0  0  0
   -0.7054    0.4021    0.2049 C   0  0  1  0  0  0  0  0  0  0  0  0
   -1.2700    0.5191    1.5337 O   0  0  0  0  0  0  0  0  0  0  0  0
   -1.0352    1.7195   -0.5528 C   0  0  0  0  0  0  0  0  0  0  0  0
   -0.3739    2.8912   -0.0139 N   0  0  0  0  0  0  0  0  0  0  0  0
    0.4556    3.7543   -0.6560 C   0  0  0  0  0  0  0  0  0  0  0  0
    0.8525    4.6825    0.1834 N   0  0  0  0  0  0  0  0  0  0  0  0
    0.2238    4.3396    1.3461 C   0  0  0  0  0  0  0  0  0  0  0  0
   -0.5345    3.2403    1.2793 N   0  0  0  0  0  0  0  0  0  0  0  0
   -1.4044   -0.7790   -0.5058 C   0  0  0  0  0  0  0  0  0  0  0  0
   -2.4738   -1.4359    0.1484 C   0  0  0  0  0  0  0  0  0  0  0  0
   -3.1510   -2.5125   -0.4318 C   0  0  0  0  0  0  0  0  0  0  0  0
   -2.7771   -2.9618   -1.6888 C   0  0  0  0  0  0  0  0  0  0  0  0
   -3.6053   -4.2849   -2.4095 Cl  0  0  0  0  0  0  0  0  0  0  0  0
   -1.7361   -2.3421   -2.3683 C   0  0  0  0  0  0  0  0  0  0  0  0
   -1.0558   -1.2612   -1.7874 C   0  0  0  0  0  0  0  0  0  0  0  0
    0.2055   -0.5797   -2.7554 Cl  0  0  0  0  0  0  0  0  0  0  0  0
  1  2  1  0
  2  3  1  0
  3  4  1  0
  4  5  1  0
  5  6  1  1
  5  7  1  0
  7  8  1  0
  8  9  1  0
  9 10  2  0
 10 11  1  0
 11 12  2  0
  5 13  1  0
 13 14  2  0
 14 15  1  0
 15 16  2  0
 16 17  1  0
 16 18  1  0
 18 19  2  0
 19 20  1  0
 12  8  1  0
 19 13  1  0
M  END
