
     RDKit          3D

 21 21  0  0  0  0  0  0  0  0999 V2000
   -0.8328    3.0108    2.0553 C   0  0  0  0  0  0  0  0  0  0  0  0
   -0.0271    1.8656    1.4760 C   0  0  0  0  0  0  0  0  0  0  0  0
   -0.8626    1.0987    0.6267 O   0  0  0  0  0  0  0  0  0  0  0  0
   -0.5772    0.9638   -0.9608 P   0  0  2  0  0  5  0  0  0  0  0  0
   -0.1146    2.6124   -1.8790 S   0  0  0  0  0  0  0  0  0  0  0  0
   -1.9590    0.2767   -1.5322 N   0  0  0  0  0  0  0  0  0  0  0  0
   -2.5691   -0.8714   -0.8659 C   0  0  1  0  0  0  0  0  0  0  0  0
   -3.7081   -0.4060    0.0431 C   0  0  0  0  0  0  0  0  0  0  0  0
   -3.0515   -1.8415   -1.9570 C   0  0  0  0  0  0  0  0  0  0  0  0
   -3.6036   -3.1479   -1.4027 C   0  0  0  0  0  0  0  0  0  0  0  0
    0.5058   -0.2459   -1.0275 O   0  0  0  0  0  0  0  0  0  0  0  0
    1.7224   -0.2171   -0.4111 C   0  0  0  0  0  0  0  0  0  0  0  0
    2.7479    0.5617   -0.9486 C   0  0  0  0  0  0  0  0  0  0  0  0
    4.0030    0.6217   -0.3219 C   0  0  0  0  0  0  0  0  0  0  0  0
    5.1038    1.4498   -0.9209 C   0  0  0  0  0  0  0  0  0  0  0  0
    4.2389   -0.1426    0.8292 C   0  0  0  0  0  0  0  0  0  0  0  0
    3.2326   -0.9526    1.3553 C   0  0  0  0  0  0  0  0  0  0  0  0
    1.9859   -0.9926    0.7196 C   0  0  0  0  0  0  0  0  0  0  0  0
    0.9647   -1.8585    1.2783 N   0  0  0  0  0  4  0  0  0  0  0  0
    0.7274   -1.7339    2.4881 O   0  0  0  0  0  0  0  0  0  0  0  0
    0.4207   -2.6725    0.5214 O   0  0  0  0  0  1  0  0  0  0  0  0
  1  2  1  0
  2  3  1  0
  3  4  1  0
  4  5  2  0
  4  6  1  6
  6  7  1  0
  7  8  1  6
  7  9  1  0
  9 10  1  0
  4 11  1  0
 11 12  1  0
 12 13  2  0
 13 14  1  0
 14 15  1  0
 14 16  2  0
 16 17  1  0
 17 18  2  0
 18 19  1  0
 19 20  2  0
 19 21  1  0
 18 12  1  0
M  CHG  2  19   1  21  -1
M  END
