
     RDKit          3D

 27 29  0  0  0  0  0  0  0  0999 V2000
   -3.2826   -0.8422   -1.2856 C   0  0  0  0  0  0  0  0  0  0  0  0
   -2.3372    0.1568   -0.5991 C   0  0  1  0  0  0  0  0  0  0  0  0
   -2.5979    1.4084   -1.2729 O   0  0  0  0  0  0  0  0  0  0  0  0
   -2.6212    0.3806    0.9098 C   0  0  0  0  0  0  0  0  0  0  0  0
   -4.0139    0.2967    1.2950 N   0  0  0  0  0  0  0  0  0  0  0  0
   -4.6550   -0.7706    1.8475 C   0  0  0  0  0  0  0  0  0  0  0  0
   -5.9044   -0.4530    2.0953 N   0  0  0  0  0  0  0  0  0  0  0  0
   -5.9728    0.8505    1.6934 C   0  0  0  0  0  0  0  0  0  0  0  0
   -4.8368    1.3566    1.2079 N   0  0  0  0  0  0  0  0  0  0  0  0
   -0.8281   -0.1502   -0.7817 C   0  0  0  0  0  0  0  0  0  0  0  0
    0.0336    0.9419   -1.0627 C   0  0  0  0  0  0  0  0  0  0  0  0
    1.4073    0.7842   -1.2586 C   0  0  0  0  0  0  0  0  0  0  0  0
    1.9742   -0.4760   -1.1503 C   0  0  0  0  0  0  0  0  0  0  0  0
    3.3077   -0.7275   -1.3715 O   0  0  0  0  0  0  0  0  0  0  0  0
    4.2181    0.1388   -0.8117 C   0  0  0  0  0  0  0  0  0  0  0  0
    4.1912    0.4817    0.5432 C   0  0  0  0  0  0  0  0  0  0  0  0
    5.1670    1.3367    1.0604 C   0  0  0  0  0  0  0  0  0  0  0  0
    6.1703    1.8288    0.2255 C   0  0  0  0  0  0  0  0  0  0  0  0
    7.3718    2.8814    0.8644 Cl  0  0  0  0  0  0  0  0  0  0  0  0
    6.2115    1.4684   -1.1213 C   0  0  0  0  0  0  0  0  0  0  0  0
    5.2365    0.6139   -1.6395 C   0  0  0  0  0  0  0  0  0  0  0  0
    1.1645   -1.5715   -0.8652 C   0  0  0  0  0  0  0  0  0  0  0  0
   -0.2282   -1.4333   -0.6476 C   0  0  0  0  0  0  0  0  0  0  0  0
   -0.9718   -2.7009   -0.2794 C   0  0  0  0  0  0  0  0  0  0  0  0
   -1.6610   -3.2264   -1.3261 F   0  0  0  0  0  0  0  0  0  0  0  0
   -0.1589   -3.7002    0.1660 F   0  0  0  0  0  0  0  0  0  0  0  0
   -1.8751   -2.5085    0.7223 F   0  0  0  0  0  0  0  0  0  0  0  0
  2  1  1  6
  2  3  1  0
  2  4  1  0
  4  5  1  0
  5  6  1  0
  6  7  2  0
  7  8  1  0
  8  9  2  0
  2 10  1  0
 10 11  2  0
 11 12  1  0
 12 13  2  0
 13 14  1  0
 14 15  1  0
 15 16  2  0
 16 17  1  0
 17 18  2  0
 18 19  1  0
 18 20  1  0
 20 21  2  0
 13 22  1  0
 22 23  2  0
 23 24  1  0
 24 25  1  0
 24 26  1  0
 24 27  1  0
  9  5  1  0
 23 10  1  0
 21 15  1  0
M  END
