
     RDKit          3D

 24 26  0  0  0  0  0  0  0  0999 V2000
   -4.8844   -1.3055    0.1410 C   0  0  0  0  0  0  0  0  0  0  0  0
   -4.0324   -1.0422   -1.0701 C   0  0  0  0  0  0  0  0  0  0  0  0
   -4.4343   -1.8031   -2.3032 C   0  0  0  0  0  0  0  0  0  0  0  0
   -2.9853   -0.1940   -1.0806 C   0  0  0  0  0  0  0  0  0  0  0  0
   -2.4791    0.6059    0.0437 C   0  0  1  0  0  0  0  0  0  0  0  0
   -1.8573    1.9590   -0.2457 C   0  0  2  0  0  0  0  0  0  0  0  0
   -0.6041    2.3554    0.4357 C   0  0  0  0  0  0  0  0  0  0  0  0
   -0.5127    3.3705    1.1083 O   0  0  0  0  0  0  0  0  0  0  0  0
    0.3954    1.4775    0.1798 O   0  0  0  0  0  0  0  0  0  0  0  0
    1.6142    1.8364    0.8245 C   0  0  0  0  0  0  0  0  0  0  0  0
    2.5904    0.8323    0.5070 N   0  0  0  0  0  0  0  0  0  0  0  0
    2.7641   -0.3145    1.2122 C   0  0  0  0  0  0  0  0  0  0  0  0
    2.1901   -0.6911    2.2172 O   0  0  0  0  0  0  0  0  0  0  0  0
    3.8196   -1.0635    0.5276 C   0  0  0  0  0  0  0  0  0  0  0  0
    4.2070   -0.3541   -0.5344 C   0  0  0  0  0  0  0  0  0  0  0  0
    5.2649   -0.7591   -1.4898 C   0  0  0  0  0  0  0  0  0  0  0  0
    6.0724   -1.9472   -0.9379 C   0  0  0  0  0  0  0  0  0  0  0  0
    5.1810   -2.9914   -0.2442 C   0  0  0  0  0  0  0  0  0  0  0  0
    4.3593   -2.3888    0.9095 C   0  0  0  0  0  0  0  0  0  0  0  0
    3.4179    0.8784   -0.5670 C   0  0  0  0  0  0  0  0  0  0  0  0
    3.5257    1.7435   -1.4153 O   0  0  0  0  0  0  0  0  0  0  0  0
   -3.1870    1.8743    0.4910 C   0  0  0  0  0  0  0  0  0  0  0  0
   -3.2393    2.1413    1.9771 C   0  0  0  0  0  0  0  0  0  0  0  0
   -4.4045    2.3821   -0.2449 C   0  0  0  0  0  0  0  0  0  0  0  0
  1  2  1  0
  2  3  1  0
  2  4  2  3
  5  4  1  6
  5  6  1  0
  6  7  1  1
  7  8  2  0
  7  9  1  0
  9 10  1  0
 10 11  1  0
 11 12  1  0
 12 13  2  0
 12 14  1  0
 14 15  2  0
 15 16  1  0
 16 17  1  0
 17 18  1  0
 18 19  1  0
 15 20  1  0
 20 21  2  0
  6 22  1  0
 22 23  1  0
 22 24  1  0
 22  5  1  0
 20 11  1  0
 19 14  1  0
M  END
