
     RDKit          3D

 24 26  0  0  0  0  0  0  0  0999 V2000
   -6.5677   -2.3088   -0.5062 C   0  0  0  0  0  0  0  0  0  0  0  0
   -5.6526   -1.1261   -0.3421 C   0  0  0  0  0  0  0  0  0  0  0  0
   -6.2635    0.0538    0.3643 C   0  0  0  0  0  0  0  0  0  0  0  0
   -4.3879   -1.1480   -0.8076 C   0  0  0  0  0  0  0  0  0  0  0  0
   -3.3963   -0.0648   -0.7319 C   0  0  2  0  0  0  0  0  0  0  0  0
   -1.9225   -0.4203   -0.6946 C   0  0  1  0  0  0  0  0  0  0  0  0
   -0.9408    0.3663   -1.4751 C   0  0  0  0  0  0  0  0  0  0  0  0
   -1.2472    1.0291   -2.4546 O   0  0  0  0  0  0  0  0  0  0  0  0
    0.3036    0.2479   -0.9509 O   0  0  0  0  0  0  0  0  0  0  0  0
    1.2709    1.0073   -1.6710 C   0  0  0  0  0  0  0  0  0  0  0  0
    2.5515    0.7783   -1.0623 N   0  0  0  0  0  0  0  0  0  0  0  0
    3.3867   -0.2377   -1.3975 C   0  0  0  0  0  0  0  0  0  0  0  0
    3.2482   -1.0947   -2.2500 O   0  0  0  0  0  0  0  0  0  0  0  0
    4.5524   -0.1220   -0.5182 C   0  0  0  0  0  0  0  0  0  0  0  0
    4.3564    0.9222    0.2910 C   0  0  0  0  0  0  0  0  0  0  0  0
    5.3120    1.3930    1.3216 C   0  0  0  0  0  0  0  0  0  0  0  0
    6.6893    0.7336    1.1233 C   0  0  0  0  0  0  0  0  0  0  0  0
    6.5787   -0.7598    0.7724 C   0  0  0  0  0  0  0  0  0  0  0  0
    5.7409   -1.0061   -0.4968 C   0  0  0  0  0  0  0  0  0  0  0  0
    3.0610    1.5184   -0.0447 C   0  0  0  0  0  0  0  0  0  0  0  0
    2.5845    2.4916    0.5093 O   0  0  0  0  0  0  0  0  0  0  0  0
   -2.5944    0.1724    0.5376 C   0  0  0  0  0  0  0  0  0  0  0  0
   -2.7531   -0.7375    1.7326 C   0  0  0  0  0  0  0  0  0  0  0  0
   -2.3287    1.6109    0.9159 C   0  0  0  0  0  0  0  0  0  0  0  0
  1  2  1  0
  2  3  1  0
  2  4  2  3
  5  4  1  1
  5  6  1  0
  6  7  1  6
  7  8  2  0
  7  9  1  0
  9 10  1  0
 10 11  1  0
 11 12  1  0
 12 13  2  0
 12 14  1  0
 14 15  2  0
 15 16  1  0
 16 17  1  0
 17 18  1  0
 18 19  1  0
 15 20  1  0
 20 21  2  0
  6 22  1  0
 22 23  1  0
 22 24  1  0
 22  5  1  0
 20 11  1  0
 19 14  1  0
M  END
