
     RDKit          3D

 20 21  0  0  0  0  0  0  0  0999 V2000
   -2.8043    0.0799   -1.1083 C   0  0  0  0  0  0  0  0  0  0  0  0
   -1.5929   -0.7775   -0.7071 C   0  0  0  0  0  0  0  0  0  0  0  0
   -1.5977   -0.9276    0.8261 C   0  0  0  0  0  0  0  0  0  0  0  0
   -1.8067   -2.1835   -1.3163 C   0  0  0  0  0  0  0  0  0  0  0  0
   -0.2178   -0.2018   -1.2099 C   0  0  1  0  0  0  0  0  0  0  0  0
   -0.1731   -0.1401   -2.6361 O   0  0  0  0  0  0  0  0  0  0  0  0
    0.2536    1.1359   -0.6356 C   0  0  0  0  0  0  0  0  0  0  0  0
    1.1814    1.1969    0.3563 C   0  0  0  0  0  0  0  0  0  0  0  0
    1.8930    0.0867    0.9964 C   0  0  0  0  0  0  0  0  0  0  0  0
    1.6095   -0.2433    2.3262 C   0  0  0  0  0  0  0  0  0  0  0  0
    2.2917   -1.2895    2.9525 C   0  0  0  0  0  0  0  0  0  0  0  0
    3.2669   -1.9971    2.2522 C   0  0  0  0  0  0  0  0  0  0  0  0
    4.1052   -3.2868    3.0222 Cl  0  0  0  0  0  0  0  0  0  0  0  0
    3.5707   -1.6639    0.9335 C   0  0  0  0  0  0  0  0  0  0  0  0
    2.8878   -0.6182    0.3076 C   0  0  0  0  0  0  0  0  0  0  0  0
   -0.2579    2.3624   -1.1510 N   0  0  0  0  0  0  0  0  0  0  0  0
   -1.0502    2.5890   -2.2709 C   0  0  0  0  0  0  0  0  0  0  0  0
   -1.3510    3.8581   -2.4168 N   0  0  0  0  0  0  0  0  0  0  0  0
   -0.6970    4.4312   -1.3818 C   0  0  0  0  0  0  0  0  0  0  0  0
   -0.0177    3.6004   -0.5972 N   0  0  0  0  0  0  0  0  0  0  0  0
  1  2  1  0
  2  3  1  0
  2  4  1  0
  2  5  1  0
  5  6  1  6
  5  7  1  0
  7  8  2  0
  8  9  1  0
  9 10  2  0
 10 11  1  0
 11 12  2  0
 12 13  1  0
 12 14  1  0
 14 15  2  0
  7 16  1  0
 16 17  1  0
 17 18  2  0
 18 19  1  0
 19 20  2  0
 15  9  1  0
 20 16  1  0
M  END
