
     RDKit          3D

 24 25  0  0  0  0  0  0  0  0999 V2000
   -3.3375    2.4372    2.2254 C   0  0  0  0  0  0  0  0  0  0  0  0
   -2.0543    2.1806    1.6534 O   0  0  0  0  0  0  0  0  0  0  0  0
   -2.0838    1.9802    0.3015 C   0  0  0  0  0  0  0  0  0  0  0  0
   -3.0901    2.0584   -0.3918 O   0  0  0  0  0  0  0  0  0  0  0  0
   -0.6722    1.6268   -0.2063 C   0  0  2  0  0  0  0  0  0  0  0  0
   -0.4342    2.4054   -1.5066 C   0  0  0  0  0  0  0  0  0  0  0  0
   -0.3720    0.1771   -0.3610 N   0  0  0  0  0  0  0  0  0  0  0  0
    0.9100   -0.3880   -0.2467 C   0  0  0  0  0  0  0  0  0  0  0  0
    1.1051   -1.6015   -0.3524 O   0  0  0  0  0  0  0  0  0  0  0  0
    2.0602    0.5706    0.0583 C   0  0  0  0  0  0  0  0  0  0  0  0
    3.4371   -0.0468   -0.0386 C   0  0  0  0  0  0  0  0  0  0  0  0
    4.0461   -0.6121    1.0905 C   0  0  0  0  0  0  0  0  0  0  0  0
    5.3165   -1.1827    0.9973 C   0  0  0  0  0  0  0  0  0  0  0  0
    5.9872   -1.1992   -0.2241 C   0  0  0  0  0  0  0  0  0  0  0  0
    5.3863   -0.6504   -1.3552 C   0  0  0  0  0  0  0  0  0  0  0  0
    4.1158   -0.0793   -1.2652 C   0  0  0  0  0  0  0  0  0  0  0  0
   -1.4815   -0.7252   -0.3321 C   0  0  0  0  0  0  0  0  0  0  0  0
   -2.1900   -1.0164   -1.5156 C   0  0  0  0  0  0  0  0  0  0  0  0
   -1.8071   -0.4710   -2.8616 C   0  0  0  0  0  0  0  0  0  0  0  0
   -3.3164   -1.8524   -1.4470 C   0  0  0  0  0  0  0  0  0  0  0  0
   -3.7076   -2.4286   -0.2419 C   0  0  0  0  0  0  0  0  0  0  0  0
   -2.9787   -2.1776    0.9163 C   0  0  0  0  0  0  0  0  0  0  0  0
   -1.8673   -1.3208    0.8930 C   0  0  0  0  0  0  0  0  0  0  0  0
   -1.0958   -1.1309    2.1714 C   0  0  0  0  0  0  0  0  0  0  0  0
  1  2  1  0
  2  3  1  0
  3  4  2  0
  3  5  1  0
  5  6  1  6
  5  7  1  0
  7  8  1  0
  8  9  2  0
  8 10  1  0
 10 11  1  0
 11 12  2  0
 12 13  1  0
 13 14  2  0
 14 15  1  0
 15 16  2  0
  7 17  1  0
 17 18  2  0
 18 19  1  0
 18 20  1  0
 20 21  2  0
 21 22  1  0
 22 23  2  0
 23 24  1  0
 16 11  1  0
 23 17  1  0
M  END
