
     RDKit          3D

 24 26  0  0  0  0  0  0  0  0999 V2000
    6.6579   -2.0375    0.5294 C   0  0  0  0  0  0  0  0  0  0  0  0
    5.6830   -0.9035    0.3655 C   0  0  0  0  0  0  0  0  0  0  0  0
    6.2233    0.2965   -0.3604 C   0  0  0  0  0  0  0  0  0  0  0  0
    4.4273   -0.9849    0.8479 C   0  0  0  0  0  0  0  0  0  0  0  0
    3.3783    0.0425    0.7689 C   0  0  2  0  0  0  0  0  0  0  0  0
    1.9257   -0.3914    0.7716 C   0  0  1  0  0  0  0  0  0  0  0  0
    0.9158    0.3645    1.5464 C   0  0  0  0  0  0  0  0  0  0  0  0
    1.2003    1.0669    2.5054 O   0  0  0  0  0  0  0  0  0  0  0  0
   -0.3264    0.1742    1.0374 O   0  0  0  0  0  0  0  0  0  0  0  0
   -1.3201    0.9259    1.7288 C   0  0  0  0  0  0  0  0  0  0  0  0
   -2.5793    0.6838    1.0820 N   0  0  0  0  0  0  0  0  0  0  0  0
   -3.0352    1.3829    0.0118 C   0  0  0  0  0  0  0  0  0  0  0  0
   -2.5255    2.3288   -0.5598 O   0  0  0  0  0  0  0  0  0  0  0  0
   -4.3156    0.7778   -0.3613 C   0  0  0  0  0  0  0  0  0  0  0  0
   -4.5554   -0.2312    0.4793 C   0  0  0  0  0  0  0  0  0  0  0  0
   -5.7449   -1.1133    0.4358 C   0  0  0  0  0  0  0  0  0  0  0  0
   -6.5195   -0.9187   -0.8804 C   0  0  0  0  0  0  0  0  0  0  0  0
   -6.6047    0.5580   -1.2999 C   0  0  0  0  0  0  0  0  0  0  0  0
   -5.2159    1.2047   -1.4573 C   0  0  0  0  0  0  0  0  0  0  0  0
   -3.4325   -0.3170    1.4152 C   0  0  0  0  0  0  0  0  0  0  0  0
   -3.3355   -1.1434    2.3028 O   0  0  0  0  0  0  0  0  0  0  0  0
    2.5411    0.2030   -0.4898 C   0  0  0  0  0  0  0  0  0  0  0  0
    2.1889    1.6141   -0.8990 C   0  0  0  0  0  0  0  0  0  0  0  0
    2.7245   -0.7278   -1.6648 C   0  0  0  0  0  0  0  0  0  0  0  0
  1  2  1  0
  2  3  1  0
  2  4  2  3
  5  4  1  6
  5  6  1  0
  6  7  1  1
  7  8  2  0
  7  9  1  0
  9 10  1  0
 10 11  1  0
 11 12  1  0
 12 13  2  0
 12 14  1  0
 14 15  2  0
 15 16  1  0
 16 17  1  0
 17 18  1  0
 18 19  1  0
 15 20  1  0
 20 21  2  0
  6 22  1  0
 22 23  1  0
 22 24  1  0
 22  5  1  0
 20 11  1  0
 19 14  1  0
M  END
