
     RDKit          3D

 26 27  0  0  0  0  0  0  0  0999 V2000
   -3.7941   -3.6683    1.0841 N   0  0  0  0  0  0  0  0  0  0  0  0
   -3.1444   -2.7728    0.7284 C   0  0  0  0  0  0  0  0  0  0  0  0
   -2.3081   -1.6858    0.3010 C   0  0  0  0  0  0  0  0  0  0  0  0
   -0.9865   -1.7945    0.4827 N   0  0  0  0  0  0  0  0  0  0  0  0
   -0.4692   -0.6475   -0.0189 N   0  0  0  0  0  0  0  0  0  0  0  0
    0.9238   -0.4208    0.0611 C   0  0  0  0  0  0  0  0  0  0  0  0
    1.4319    0.7179    0.7046 C   0  0  0  0  0  0  0  0  0  0  0  0
    0.4422    1.8866    1.5104 Cl  0  0  0  0  0  0  0  0  0  0  0  0
    2.8166    0.9123    0.7981 C   0  0  0  0  0  0  0  0  0  0  0  0
    3.7141   -0.0203    0.2602 C   0  0  0  0  0  0  0  0  0  0  0  0
    5.2046    0.1837    0.3903 C   0  0  0  0  0  0  0  0  0  0  0  0
    5.9118   -0.4136   -0.6065 F   0  0  0  0  0  0  0  0  0  0  0  0
    5.6918   -0.3166    1.5562 F   0  0  0  0  0  0  0  0  0  0  0  0
    5.5581    1.4978    0.3640 F   0  0  0  0  0  0  0  0  0  0  0  0
    3.1994   -1.1646   -0.3630 C   0  0  0  0  0  0  0  0  0  0  0  0
    1.8169   -1.3685   -0.4658 C   0  0  0  0  0  0  0  0  0  0  0  0
    1.3148   -2.7607   -1.3643 Cl  0  0  0  0  0  0  0  0  0  0  0  0
   -1.4615    0.1865   -0.5508 C   0  0  0  0  0  0  0  0  0  0  0  0
   -1.2017    1.3541   -1.1999 N   0  0  0  0  0  0  0  0  0  0  0  0
   -2.6512   -0.4737   -0.3210 C   0  0  0  0  0  0  0  0  0  0  0  0
   -4.2833    0.0605   -0.8077 S   0  0  0  0  0  4  0  0  0  0  0  0
   -5.2540   -0.9131   -0.2047 O   0  0  0  0  0  0  0  0  0  0  0  0
   -4.3265    1.6292    0.0959 C   0  0  0  0  0  0  0  0  0  0  0  0
   -3.9092    1.5121    1.3816 F   0  0  0  0  0  0  0  0  0  0  0  0
   -5.5747    2.1621    0.1264 F   0  0  0  0  0  0  0  0  0  0  0  0
   -3.5310    2.5634   -0.4969 F   0  0  0  0  0  0  0  0  0  0  0  0
  1  2  3  0
  2  3  1  0
  3  4  2  0
  4  5  1  0
  5  6  1  0
  6  7  2  0
  7  8  1  0
  7  9  1  0
  9 10  2  0
 10 11  1  0
 11 12  1  0
 11 13  1  0
 11 14  1  0
 10 15  1  0
 15 16  2  0
 16 17  1  0
  5 18  1  0
 18 19  1  0
 18 20  2  0
 20 21  1  0
 21 22  2  0
 21 23  1  1
 23 24  1  0
 23 25  1  0
 23 26  1  0
 20  3  1  0
 16  6  1  0
M  END
