
     RDKit          3D

 21 22  0  0  0  0  0  0  0  0999 V2000
   -2.3164   -1.1122   -2.1655 C   0  0  0  0  0  0  0  0  0  0  0  0
   -2.4989   -1.0881   -0.6355 C   0  0  0  0  0  0  0  0  0  0  0  0
   -2.0234   -2.4173   -0.0246 C   0  0  0  0  0  0  0  0  0  0  0  0
   -4.0296   -0.9899   -0.3882 C   0  0  0  0  0  0  0  0  0  0  0  0
   -1.7928    0.1435    0.0310 C   0  0  1  0  0  0  0  0  0  0  0  0
   -2.3355    0.2512    1.3687 O   0  0  0  0  0  0  0  0  0  0  0  0
   -0.2353    0.1919    0.1486 C   0  0  1  0  0  0  0  0  0  0  0  0
    0.5904   -0.2254   -1.0847 C   0  0  0  0  0  0  0  0  0  0  0  0
    2.0995   -0.1311   -0.9128 C   0  0  0  0  0  0  0  0  0  0  0  0
    2.7930    0.9148   -1.5483 C   0  0  0  0  0  0  0  0  0  0  0  0
    4.1751    1.0517   -1.4008 C   0  0  0  0  0  0  0  0  0  0  0  0
    4.8826    0.1399   -0.6240 C   0  0  0  0  0  0  0  0  0  0  0  0
    6.5852    0.3093   -0.4468 Cl  0  0  0  0  0  0  0  0  0  0  0  0
    4.2230   -0.9121    0.0023 C   0  0  0  0  0  0  0  0  0  0  0  0
    2.8398   -1.0495   -0.1439 C   0  0  0  0  0  0  0  0  0  0  0  0
    2.0955   -2.4032    0.6296 Cl  0  0  0  0  0  0  0  0  0  0  0  0
    0.1252    1.5561    0.5756 N   0  0  0  0  0  0  0  0  0  0  0  0
    0.1620    2.7006   -0.1628 C   0  0  0  0  0  0  0  0  0  0  0  0
    0.4434    3.7183    0.6161 N   0  0  0  0  0  0  0  0  0  0  0  0
    0.5264    3.1458    1.8524 C   0  0  0  0  0  0  0  0  0  0  0  0
    0.2957    1.8306    1.8845 N   0  0  0  0  0  0  0  0  0  0  0  0
  1  2  1  0
  2  3  1  0
  2  4  1  0
  2  5  1  0
  5  6  1  1
  5  7  1  0
  7  8  1  6
  8  9  1  0
  9 10  2  0
 10 11  1  0
 11 12  2  0
 12 13  1  0
 12 14  1  0
 14 15  2  0
 15 16  1  0
  7 17  1  0
 17 18  1  0
 18 19  2  0
 19 20  1  0
 20 21  2  0
 15  9  1  0
 21 17  1  0
M  END
