
     RDKit          3D

 25 27  0  0  0  0  0  0  0  0999 V2000
   -3.5316   -1.2208   -1.6449 C   0  0  0  0  0  0  0  0  0  0  0  0
   -4.0884   -0.8849   -0.2487 C   0  0  0  0  0  0  0  0  0  0  0  0
   -5.0336   -2.0355    0.1748 C   0  0  0  0  0  0  0  0  0  0  0  0
   -4.9489    0.3866   -0.3579 C   0  0  0  0  0  0  0  0  0  0  0  0
   -2.9309   -0.7881    0.8035 C   0  0  2  0  0  0  0  0  0  0  0  0
   -3.4557   -0.5398    2.1219 O   0  0  0  0  0  0  0  0  0  0  0  0
   -1.7033    0.1235    0.4865 C   0  0  2  0  0  0  0  0  0  0  0  0
   -0.6665   -0.2085    1.4368 O   0  0  0  0  0  0  0  0  0  0  0  0
    0.6362   -0.1502    1.0301 C   0  0  0  0  0  0  0  0  0  0  0  0
    1.5273   -0.8632    1.8328 C   0  0  0  0  0  0  0  0  0  0  0  0
    2.8944   -0.8829    1.5391 C   0  0  0  0  0  0  0  0  0  0  0  0
    3.4049   -0.1804    0.4383 C   0  0  0  0  0  0  0  0  0  0  0  0
    4.8432   -0.1964    0.1251 C   0  0  0  0  0  0  0  0  0  0  0  0
    5.3021   -0.5541   -1.1538 C   0  0  0  0  0  0  0  0  0  0  0  0
    6.6675   -0.5700   -1.4518 C   0  0  0  0  0  0  0  0  0  0  0  0
    7.5984   -0.2266   -0.4749 C   0  0  0  0  0  0  0  0  0  0  0  0
    7.1654    0.1320    0.7989 C   0  0  0  0  0  0  0  0  0  0  0  0
    5.7997    0.1462    1.0956 C   0  0  0  0  0  0  0  0  0  0  0  0
    2.4989    0.5456   -0.3507 C   0  0  0  0  0  0  0  0  0  0  0  0
    1.1286    0.5665   -0.0576 C   0  0  0  0  0  0  0  0  0  0  0  0
   -1.9811    1.5443    0.5901 N   0  0  0  0  0  0  0  0  0  0  0  0
   -2.1318    2.2893    1.7206 C   0  0  0  0  0  0  0  0  0  0  0  0
   -2.3662    3.5397    1.3966 N   0  0  0  0  0  0  0  0  0  0  0  0
   -2.2957    3.5233    0.0339 C   0  0  0  0  0  0  0  0  0  0  0  0
   -2.0564    2.3269   -0.5109 N   0  0  0  0  0  0  0  0  0  0  0  0
  1  2  1  0
  2  3  1  0
  2  4  1  0
  2  5  1  0
  5  6  1  1
  5  7  1  0
  7  8  1  1
  8  9  1  0
  9 10  2  0
 10 11  1  0
 11 12  2  0
 12 13  1  0
 13 14  2  0
 14 15  1  0
 15 16  2  0
 16 17  1  0
 17 18  2  0
 12 19  1  0
 19 20  2  0
  7 21  1  0
 21 22  1  0
 22 23  2  0
 23 24  1  0
 24 25  2  0
 20  9  1  0
 25 21  1  0
 18 13  1  0
M  END
