
     RDKit          3D

 24 25  0  0  0  0  0  0  0  0999 V2000
   -3.2160    1.7229    1.8008 C   0  0  0  0  0  0  0  0  0  0  0  0
   -3.2423    1.1149    0.3949 C   0  0  0  0  0  0  0  0  0  0  0  0
   -4.6841    0.7903    0.0032 C   0  0  0  0  0  0  0  0  0  0  0  0
   -2.3225   -0.1230    0.3489 C   0  0  0  0  0  0  0  0  0  0  0  0
   -2.1958   -0.8147   -1.0271 C   0  0  1  0  0  0  0  0  0  0  0  0
   -1.6992    0.1178   -2.1362 C   0  0  0  0  0  0  0  0  0  0  0  0
   -1.3294   -2.0659   -0.9290 C   0  0  0  0  0  0  0  0  0  0  0  0
   -2.1035   -3.5828   -1.2118 S   0  0  0  0  0  0  0  0  0  0  0  0
   -0.6628   -4.4479   -0.9626 C   0  0  0  0  0  0  0  0  0  0  0  0
    0.3903   -3.6148   -0.6677 C   0  0  0  0  0  0  0  0  0  0  0  0
    0.0229   -2.2328   -0.6428 C   0  0  0  0  0  0  0  0  0  0  0  0
    0.8668   -1.1581   -0.3705 N   0  0  0  0  0  0  0  0  0  0  0  0
    2.2176   -1.2321   -0.0894 C   0  0  0  0  0  0  0  0  0  0  0  0
    2.8846   -2.2573   -0.0563 O   0  0  0  0  0  0  0  0  0  0  0  0
    2.8476    0.0605    0.1777 C   0  0  0  0  0  0  0  0  0  0  0  0
    2.2651    1.3113    0.3001 C   0  0  0  0  0  0  0  0  0  0  0  0
    3.2776    2.1869    0.5574 N   0  0  0  0  0  0  0  0  0  0  0  0
    3.1655    3.6111    0.7678 C   0  0  0  0  0  0  0  0  0  0  0  0
    4.4837    1.6097    0.6122 N   0  0  0  0  0  0  0  0  0  0  0  0
    4.2461    0.2995    0.3864 C   0  0  0  0  0  0  0  0  0  0  0  0
    5.3505   -0.7330    0.3624 C   0  0  0  0  0  0  0  0  0  0  0  0
    5.2098   -1.6609    1.3461 F   0  0  0  0  0  0  0  0  0  0  0  0
    5.4061   -1.3967   -0.8234 F   0  0  0  0  0  0  0  0  0  0  0  0
    6.5858   -0.1834    0.5400 F   0  0  0  0  0  0  0  0  0  0  0  0
  1  2  1  0
  2  3  1  0
  2  4  1  0
  4  5  1  0
  5  6  1  6
  5  7  1  0
  7  8  1  0
  8  9  1  0
  9 10  2  0
 10 11  1  0
 11 12  1  0
 12 13  1  0
 13 14  2  0
 13 15  1  0
 15 16  2  0
 16 17  1  0
 17 18  1  0
 17 19  1  0
 19 20  2  0
 20 21  1  0
 21 22  1  0
 21 23  1  0
 21 24  1  0
 11  7  2  0
 20 15  1  0
M  END
