
     RDKit          3D

 21 21  0  0  0  0  0  0  0  0999 V2000
   -0.7200    4.3031   -2.6487 C   0  0  0  0  0  0  0  0  0  0  0  0
   -0.8986    3.2403   -1.5785 C   0  0  0  0  0  0  0  0  0  0  0  0
   -1.5547    1.9818   -2.1318 C   0  0  0  0  0  0  0  0  0  0  0  0
   -1.7526    1.0659   -1.0638 O   0  0  0  0  0  0  0  0  0  0  0  0
   -2.3506   -0.4064   -1.4065 P   0  0  0  0  0  5  0  0  0  0  0  0
   -4.1095   -0.3204   -2.2623 S   0  0  0  0  0  0  0  0  0  0  0  0
   -2.4643   -0.9672    0.1245 O   0  0  0  0  0  0  0  0  0  0  0  0
   -2.9446   -2.2868    0.3458 C   0  0  0  0  0  0  0  0  0  0  0  0
   -4.1047   -2.2391    1.3299 C   0  0  0  0  0  0  0  0  0  0  0  0
   -4.6624   -3.6220    1.6144 C   0  0  0  0  0  0  0  0  0  0  0  0
   -0.8344   -1.5525   -2.3250 S   0  0  0  0  0  0  0  0  0  0  0  0
    0.4657   -1.6599   -1.0632 C   0  0  0  0  0  0  0  0  0  0  0  0
    1.2571   -0.3694   -0.8976 C   0  0  0  0  0  0  0  0  0  0  0  0
    1.1668    0.5543   -1.7085 O   0  0  0  0  0  0  0  0  0  0  0  0
    2.1369   -0.3028    0.1927 N   0  0  0  0  0  0  0  0  0  0  0  0
    2.1742   -1.2998    1.2693 C   0  0  0  0  0  0  0  0  0  0  0  0
    3.5693   -1.4514    1.8781 C   0  0  0  0  0  0  0  0  0  0  0  0
    4.1576   -0.1091    2.2912 C   0  0  0  0  0  0  0  0  0  0  0  0
    4.1555    0.8458    1.1048 C   0  0  0  0  0  0  0  0  0  0  0  0
    2.7609    1.0037    0.4767 C   0  0  2  0  0  0  0  0  0  0  0  0
    1.8413    1.8768    1.3399 C   0  0  0  0  0  0  0  0  0  0  0  0
  1  2  1  0
  2  3  1  0
  3  4  1  0
  4  5  1  0
  5  6  2  0
  5  7  1  0
  7  8  1  0
  8  9  1  0
  9 10  1  0
  5 11  1  0
 11 12  1  0
 12 13  1  0
 13 14  2  0
 13 15  1  0
 15 16  1  0
 16 17  1  0
 17 18  1  0
 18 19  1  0
 19 20  1  0
 20 21  1  1
 20 15  1  0
M  END
