
     RDKit          3D

 20 21  0  0  0  0  0  0  0  0999 V2000
   -0.5640    3.4388   -1.1613 C   0  0  0  0  0  0  0  0  0  0  0  0
   -0.7706    2.6264    0.1003 C   0  0  0  0  0  0  0  0  0  0  0  0
   -0.0998    1.3845   -0.0504 O   0  0  0  0  0  0  0  0  0  0  0  0
   -0.5733    0.1208    0.8664 P   0  0  2  0  0  5  0  0  0  0  0  0
   -0.4236    0.4441    2.7918 S   0  0  0  0  0  0  0  0  0  0  0  0
    0.4152   -1.0422    0.3101 O   0  0  0  0  0  0  0  0  0  0  0  0
    1.7801   -1.0597    0.3387 C   0  0  0  0  0  0  0  0  0  0  0  0
    2.3711   -2.2602   -0.0628 C   0  0  0  0  0  0  0  0  0  0  0  0
    3.7617   -2.3948   -0.0800 C   0  0  0  0  0  0  0  0  0  0  0  0
    4.5706   -1.3221    0.3035 C   0  0  0  0  0  0  0  0  0  0  0  0
    5.9982   -1.4526    0.2866 C   0  0  0  0  0  0  0  0  0  0  0  0
    7.1538   -1.5584    0.2686 N   0  0  0  0  0  0  0  0  0  0  0  0
    3.9781   -0.1192    0.7006 C   0  0  0  0  0  0  0  0  0  0  0  0
    2.5845    0.0121    0.7161 C   0  0  0  0  0  0  0  0  0  0  0  0
   -2.1410   -0.3535    0.1286 C   0  0  0  0  0  0  0  0  0  0  0  0
   -3.2800   -0.5973    0.9102 C   0  0  0  0  0  0  0  0  0  0  0  0
   -4.4886   -0.9599    0.3119 C   0  0  0  0  0  0  0  0  0  0  0  0
   -4.5738   -1.0845   -1.0732 C   0  0  0  0  0  0  0  0  0  0  0  0
   -3.4516   -0.8488   -1.8636 C   0  0  0  0  0  0  0  0  0  0  0  0
   -2.2435   -0.4868   -1.2670 C   0  0  0  0  0  0  0  0  0  0  0  0
  1  2  1  0
  2  3  1  0
  4  3  1  6
  4  5  2  0
  4  6  1  0
  6  7  1  0
  7  8  2  0
  8  9  1  0
  9 10  2  0
 10 11  1  0
 11 12  3  0
 10 13  1  0
 13 14  2  0
  4 15  1  0
 15 16  2  0
 16 17  1  0
 17 18  2  0
 18 19  1  0
 19 20  2  0
 14  7  1  0
 20 15  1  0
M  END
