
     RDKit          3D

 20 20  0  0  0  0  0  0  0  0999 V2000
   -3.8656    3.0946    0.6611 C   0  0  0  0  0  0  0  0  0  0  0  0
   -4.8960    2.0564    0.2445 C   0  0  0  0  0  0  0  0  0  0  0  0
   -4.4800    0.6190    0.5698 C   0  0  0  0  0  0  0  0  0  0  0  0
   -3.2381    0.1615   -0.2037 C   0  0  0  0  0  0  0  0  0  0  0  0
   -2.9532   -1.3551   -0.0781 C   0  0  2  0  0  0  0  0  0  0  0  0
   -2.6149   -1.7376    1.3794 C   0  0  0  0  0  0  0  0  0  0  0  0
   -2.3000   -3.2150    1.5720 C   0  0  0  0  0  0  0  0  0  0  0  0
   -1.8397   -1.7499   -1.0678 C   0  0  0  0  0  0  0  0  0  0  0  0
   -0.6068   -1.1315   -0.6780 O   0  0  0  0  0  0  0  0  0  0  0  0
    0.4486   -1.4303   -1.4745 C   0  0  0  0  0  0  0  0  0  0  0  0
    0.4209   -2.1588   -2.4539 O   0  0  0  0  0  0  0  0  0  0  0  0
    1.6754   -0.7418   -0.9919 C   0  0  0  0  0  0  0  0  0  0  0  0
    1.6861    0.0822    0.1333 C   0  0  0  0  0  0  0  0  0  0  0  0
    2.8755    0.7068    0.5412 C   0  0  0  0  0  0  0  0  0  0  0  0
    4.0938    0.5314   -0.1410 C   0  0  0  0  0  0  0  0  0  0  0  0
    5.2691    1.1730    0.2645 N   0  0  0  0  0  0  0  0  0  0  0  0
    6.5432    0.7774   -0.3335 C   0  0  0  0  0  0  0  0  0  0  0  0
    5.3492    1.7146    1.6204 C   0  0  0  0  0  0  0  0  0  0  0  0
    4.0441   -0.2926   -1.2800 C   0  0  0  0  0  0  0  0  0  0  0  0
    2.8630   -0.9240   -1.6993 C   0  0  0  0  0  0  0  0  0  0  0  0
  1  2  1  0
  2  3  1  0
  3  4  1  0
  5  4  1  1
  5  6  1  0
  6  7  1  0
  5  8  1  0
  8  9  1  0
  9 10  1  0
 10 11  2  0
 10 12  1  0
 12 13  2  0
 13 14  1  0
 14 15  2  0
 15 16  1  0
 16 17  1  0
 16 18  1  0
 15 19  1  0
 19 20  2  0
 20 12  1  0
M  END
