
     RDKit          3D

 24 26  0  0  0  0  0  0  0  0999 V2000
   -3.0939    2.0776    2.1449 C   0  0  0  0  0  0  0  0  0  0  0  0
   -1.8092    1.3668    2.4670 C   0  0  0  0  0  0  0  0  0  0  0  0
   -0.6955    2.2577    2.9461 C   0  0  0  0  0  0  0  0  0  0  0  0
   -1.6369    0.0350    2.3502 C   0  0  0  0  0  0  0  0  0  0  0  0
   -2.6276   -0.9585    1.9080 C   0  0  2  0  0  0  0  0  0  0  0  0
   -2.2182   -2.1976    1.1344 C   0  0  2  0  0  0  0  0  0  0  0  0
   -0.8068   -2.5144    0.8158 C   0  0  0  0  0  0  0  0  0  0  0  0
    0.0348   -2.6644    1.6880 O   0  0  0  0  0  0  0  0  0  0  0  0
   -0.6133   -2.6744   -0.5154 O   0  0  0  0  0  0  0  0  0  0  0  0
    0.7320   -2.9686   -0.8998 C   0  0  0  0  0  0  0  0  0  0  0  0
    1.4787   -1.7490   -1.0451 N   0  0  0  0  0  0  0  0  0  0  0  0
    1.2238   -0.8054   -1.9888 C   0  0  0  0  0  0  0  0  0  0  0  0
    0.3464   -0.7764   -2.8314 O   0  0  0  0  0  0  0  0  0  0  0  0
    2.2648    0.2141   -1.8465 C   0  0  0  0  0  0  0  0  0  0  0  0
    3.1358   -0.2151   -0.9300 C   0  0  0  0  0  0  0  0  0  0  0  0
    4.3476    0.5175   -0.4969 C   0  0  0  0  0  0  0  0  0  0  0  0
    4.3079    1.9740   -0.9955 C   0  0  0  0  0  0  0  0  0  0  0  0
    3.7864    2.0875   -2.4382 C   0  0  0  0  0  0  0  0  0  0  0  0
    2.3816    1.4805   -2.6059 C   0  0  0  0  0  0  0  0  0  0  0  0
    2.6784   -1.5205   -0.4501 C   0  0  0  0  0  0  0  0  0  0  0  0
    3.3216   -2.2414    0.2895 O   0  0  0  0  0  0  0  0  0  0  0  0
   -3.0043   -1.0925    0.4405 C   0  0  0  0  0  0  0  0  0  0  0  0
   -2.3358   -0.2222   -0.5997 C   0  0  0  0  0  0  0  0  0  0  0  0
   -4.4516   -1.3810    0.1209 C   0  0  0  0  0  0  0  0  0  0  0  0
  1  2  1  0
  2  3  1  0
  2  4  2  3
  5  4  1  6
  5  6  1  0
  6  7  1  6
  7  8  2  0
  7  9  1  0
  9 10  1  0
 10 11  1  0
 11 12  1  0
 12 13  2  0
 12 14  1  0
 14 15  2  0
 15 16  1  0
 16 17  1  0
 17 18  1  0
 18 19  1  0
 15 20  1  0
 20 21  2  0
  6 22  1  0
 22 23  1  0
 22 24  1  0
 22  5  1  0
 20 11  1  0
 19 14  1  0
M  END
