
     RDKit          3D

 26 27  0  0  0  0  0  0  0  0999 V2000
   -3.9516    1.9045   -3.0215 N   0  0  0  0  0  0  0  0  0  0  0  0
   -3.1582    1.5489   -2.2519 C   0  0  0  0  0  0  0  0  0  0  0  0
   -2.2414    1.1217   -1.2367 C   0  0  0  0  0  0  0  0  0  0  0  0
   -0.9904    0.7932   -1.5746 N   0  0  0  0  0  0  0  0  0  0  0  0
   -0.3877    0.4730   -0.3962 N   0  0  0  0  0  0  0  0  0  0  0  0
    0.9614    0.0521   -0.3893 C   0  0  0  0  0  0  0  0  0  0  0  0
    1.9458    0.8474   -0.9994 C   0  0  0  0  0  0  0  0  0  0  0  0
    1.6372    2.4188   -1.6586 Cl  0  0  0  0  0  0  0  0  0  0  0  0
    3.2822    0.4256   -1.0117 C   0  0  0  0  0  0  0  0  0  0  0  0
    3.6587   -0.7922   -0.4307 C   0  0  0  0  0  0  0  0  0  0  0  0
    5.1032   -1.2312   -0.4253 C   0  0  0  0  0  0  0  0  0  0  0  0
    5.7532   -0.8308    0.6999 F   0  0  0  0  0  0  0  0  0  0  0  0
    5.8155   -0.7348   -1.4724 F   0  0  0  0  0  0  0  0  0  0  0  0
    5.2439   -2.5834   -0.4825 F   0  0  0  0  0  0  0  0  0  0  0  0
    2.6711   -1.5796    0.1763 C   0  0  0  0  0  0  0  0  0  0  0  0
    1.3306   -1.1705    0.1919 C   0  0  0  0  0  0  0  0  0  0  0  0
    0.1984   -2.3028    0.8485 Cl  0  0  0  0  0  0  0  0  0  0  0  0
   -1.2556    0.6317    0.6878 C   0  0  0  0  0  0  0  0  0  0  0  0
   -0.9033    0.4946    1.9899 N   0  0  0  0  0  0  0  0  0  0  0  0
   -2.4617    1.0091    0.1426 C   0  0  0  0  0  0  0  0  0  0  0  0
   -3.9867    1.3386    1.0166 S   0  0  0  0  0  4  0  0  0  0  0  0
   -3.6416    1.4028    2.4813 O   0  0  0  0  0  0  0  0  0  0  0  0
   -4.7977   -0.2455    0.6499 C   0  0  0  0  0  0  0  0  0  0  0  0
   -4.9684   -0.4126   -0.6871 F   0  0  0  0  0  0  0  0  0  0  0  0
   -6.0286   -0.3236    1.2144 F   0  0  0  0  0  0  0  0  0  0  0  0
   -4.0844   -1.3122    1.0906 F   0  0  0  0  0  0  0  0  0  0  0  0
  1  2  3  0
  2  3  1  0
  3  4  2  0
  4  5  1  0
  5  6  1  0
  6  7  2  0
  7  8  1  0
  7  9  1  0
  9 10  2  0
 10 11  1  0
 11 12  1  0
 11 13  1  0
 11 14  1  0
 10 15  1  0
 15 16  2  0
 16 17  1  0
  5 18  1  0
 18 19  1  0
 18 20  2  0
 20 21  1  0
 21 22  2  0
 21 23  1  1
 23 24  1  0
 23 25  1  0
 23 26  1  0
 20  3  1  0
 16  6  1  0
M  END
