
     RDKit          3D

 21 22  0  0  0  0  0  0  0  0999 V2000
   -2.8590    2.8429   -2.5563 C   0  0  0  0  0  0  0  0  0  0  0  0
   -1.8669    2.9253   -1.4141 C   0  0  0  0  0  0  0  0  0  0  0  0
   -2.0672    1.8068   -0.5643 O   0  0  0  0  0  0  0  0  0  0  0  0
   -0.8645    1.3355    0.4334 P   0  0  2  0  0  5  0  0  0  0  0  0
   -0.2760    2.7746    1.6240 S   0  0  0  0  0  0  0  0  0  0  0  0
    0.2387    0.8959   -0.6759 O   0  0  0  0  0  0  0  0  0  0  0  0
    1.4249    0.2580   -0.4470 C   0  0  0  0  0  0  0  0  0  0  0  0
    2.1867   -0.0094   -1.5887 C   0  0  0  0  0  0  0  0  0  0  0  0
    3.4159   -0.6651   -1.4856 C   0  0  0  0  0  0  0  0  0  0  0  0
    3.8810   -1.0545   -0.2247 C   0  0  0  0  0  0  0  0  0  0  0  0
    5.1702   -1.7468   -0.1042 N   0  0  0  0  0  4  0  0  0  0  0  0
    5.8121   -1.9538   -1.1439 O   0  0  0  0  0  0  0  0  0  0  0  0
    5.5386   -2.0860    1.0292 O   0  0  0  0  0  1  0  0  0  0  0  0
    3.1228   -0.7889    0.9228 C   0  0  0  0  0  0  0  0  0  0  0  0
    1.8926   -0.1310    0.8071 C   0  0  0  0  0  0  0  0  0  0  0  0
   -1.5129   -0.2122    1.0673 C   0  0  0  0  0  0  0  0  0  0  0  0
   -1.8577   -1.2460    0.1802 C   0  0  0  0  0  0  0  0  0  0  0  0
   -2.3532   -2.4605    0.6559 C   0  0  0  0  0  0  0  0  0  0  0  0
   -2.5155   -2.6570    2.0250 C   0  0  0  0  0  0  0  0  0  0  0  0
   -2.1866   -1.6396    2.9181 C   0  0  0  0  0  0  0  0  0  0  0  0
   -1.6905   -0.4239    2.4432 C   0  0  0  0  0  0  0  0  0  0  0  0
  1  2  1  0
  2  3  1  0
  4  3  1  6
  4  5  2  0
  4  6  1  0
  6  7  1  0
  7  8  2  0
  8  9  1  0
  9 10  2  0
 10 11  1  0
 11 12  2  0
 11 13  1  0
 10 14  1  0
 14 15  2  0
  4 16  1  0
 16 17  2  0
 17 18  1  0
 18 19  2  0
 19 20  1  0
 20 21  2  0
 15  7  1  0
 21 16  1  0
M  CHG  2  11   1  13  -1
M  END
