
     RDKit          3D

 21 21  0  0  0  0  0  0  0  0999 V2000
   -3.9477   -3.3572   -2.9127 C   0  0  0  0  0  0  0  0  0  0  0  0
   -2.8311   -2.4719   -2.3891 C   0  0  0  0  0  0  0  0  0  0  0  0
   -3.2047   -1.8087   -1.0701 C   0  0  0  0  0  0  0  0  0  0  0  0
   -2.1093   -1.0092   -0.6493 O   0  0  0  0  0  0  0  0  0  0  0  0
   -2.3100    0.0357    0.5835 P   0  0  0  0  0  5  0  0  0  0  0  0
   -2.8027   -0.8665    2.2421 S   0  0  0  0  0  0  0  0  0  0  0  0
   -3.5046    0.9480   -0.0346 O   0  0  0  0  0  0  0  0  0  0  0  0
   -4.0064    2.0335    0.7309 C   0  0  0  0  0  0  0  0  0  0  0  0
   -4.4862    3.1139   -0.2281 C   0  0  0  0  0  0  0  0  0  0  0  0
   -5.0584    4.3108    0.5097 C   0  0  0  0  0  0  0  0  0  0  0  0
   -0.5734    1.2117    0.5537 S   0  0  0  0  0  0  0  0  0  0  0  0
    0.7275   -0.0209    0.8327 C   0  0  0  0  0  0  0  0  0  0  0  0
    2.1167    0.6132    0.8416 C   0  0  0  0  0  0  0  0  0  0  0  0
    2.3134    1.7214    1.3399 O   0  0  0  0  0  0  0  0  0  0  0  0
    3.1396   -0.1422    0.2524 N   0  0  0  0  0  0  0  0  0  0  0  0
    3.0960   -1.6107    0.2929 C   0  0  0  0  0  0  0  0  0  0  0  0
    4.4459   -2.2317    0.6793 C   0  0  0  0  0  0  0  0  0  0  0  0
    5.1621   -1.3835    1.7312 C   0  0  0  0  0  0  0  0  0  0  0  0
    5.3629    0.0702    1.2715 C   0  0  0  0  0  0  0  0  0  0  0  0
    4.4875    0.4158    0.0598 C   0  0  2  0  0  0  0  0  0  0  0  0
    4.5731    1.8953   -0.3162 C   0  0  0  0  0  0  0  0  0  0  0  0
  1  2  1  0
  2  3  1  0
  3  4  1  0
  4  5  1  0
  5  6  2  0
  5  7  1  0
  7  8  1  0
  8  9  1  0
  9 10  1  0
  5 11  1  0
 11 12  1  0
 12 13  1  0
 13 14  2  0
 13 15  1  0
 15 16  1  0
 16 17  1  0
 17 18  1  0
 18 19  1  0
 19 20  1  0
 20 21  1  1
 20 15  1  0
M  END
