
     RDKit          3D

 20 21  0  0  0  0  0  0  0  0999 V2000
    3.9352   -1.1958    0.0628 C   0  0  0  0  0  0  0  0  0  0  0  0
    2.6754   -1.0906    0.9074 C   0  0  0  0  0  0  0  0  0  0  0  0
    1.5168   -0.4858    0.1114 C   0  0  0  0  0  0  0  0  0  0  0  0
    0.2546   -0.3788    0.9717 C   0  0  0  0  0  0  0  0  0  0  0  0
   -1.0095    0.1648    0.2493 C   0  0  2  0  0  0  0  0  0  0  0  0
   -2.0744    0.1204    1.2399 O   0  0  0  0  0  0  0  0  0  0  0  0
   -1.4765   -0.7352   -0.9298 C   0  0  0  0  0  0  0  0  0  0  0  0
   -1.7049   -2.1275   -0.5734 N   0  0  0  0  0  0  0  0  0  0  0  0
   -1.1924   -3.2356   -1.1723 C   0  0  0  0  0  0  0  0  0  0  0  0
   -1.6303   -4.3083   -0.5553 N   0  0  0  0  0  0  0  0  0  0  0  0
   -2.4288   -3.7970    0.4266 C   0  0  0  0  0  0  0  0  0  0  0  0
   -2.5006   -2.4625    0.4634 N   0  0  0  0  0  0  0  0  0  0  0  0
   -0.8337    1.6741   -0.0578 C   0  0  0  0  0  0  0  0  0  0  0  0
   -1.0981    2.5817    1.0047 C   0  0  0  0  0  0  0  0  0  0  0  0
   -0.9767    3.9670    0.8661 C   0  0  0  0  0  0  0  0  0  0  0  0
   -0.5703    4.4956   -0.3459 C   0  0  0  0  0  0  0  0  0  0  0  0
   -0.4141    6.1970   -0.5347 Cl  0  0  0  0  0  0  0  0  0  0  0  0
   -0.2758    3.6485   -1.4060 C   0  0  0  0  0  0  0  0  0  0  0  0
   -0.3953    2.2535   -1.2669 C   0  0  0  0  0  0  0  0  0  0  0  0
    0.0877    1.3652   -2.6668 Cl  0  0  0  0  0  0  0  0  0  0  0  0
  1  2  1  0
  2  3  1  0
  3  4  1  0
  4  5  1  0
  5  6  1  1
  5  7  1  0
  7  8  1  0
  8  9  1  0
  9 10  2  0
 10 11  1  0
 11 12  2  0
  5 13  1  0
 13 14  2  0
 14 15  1  0
 15 16  2  0
 16 17  1  0
 16 18  1  0
 18 19  2  0
 19 20  1  0
 12  8  1  0
 19 13  1  0
M  END
