
     RDKit          3D

 24 25  0  0  0  0  0  0  0  0999 V2000
   -2.1767   -3.6327   -1.9199 C   0  0  0  0  0  0  0  0  0  0  0  0
   -2.2322   -2.8253   -0.7424 O   0  0  0  0  0  0  0  0  0  0  0  0
   -1.2131   -1.9192   -0.6387 C   0  0  0  0  0  0  0  0  0  0  0  0
   -0.3051   -1.8091   -1.4512 O   0  0  0  0  0  0  0  0  0  0  0  0
   -1.3702   -1.1091    0.6569 C   0  0  1  0  0  0  0  0  0  0  0  0
   -1.0895   -1.9741    1.8866 C   0  0  0  0  0  0  0  0  0  0  0  0
   -0.6405    0.1923    0.6391 N   0  0  0  0  0  0  0  0  0  0  0  0
    0.7292    0.4071    0.8237 C   0  0  0  0  0  0  0  0  0  0  0  0
    1.1903    1.5427    0.9924 O   0  0  0  0  0  0  0  0  0  0  0  0
    1.6650   -0.7943    0.8812 C   0  0  0  0  0  0  0  0  0  0  0  0
    2.9976   -0.5511    0.2077 C   0  0  0  0  0  0  0  0  0  0  0  0
    4.0838   -0.0419    0.9321 C   0  0  0  0  0  0  0  0  0  0  0  0
    5.3080    0.1879    0.3022 C   0  0  0  0  0  0  0  0  0  0  0  0
    5.4565   -0.0835   -1.0568 C   0  0  0  0  0  0  0  0  0  0  0  0
    4.3796   -0.5795   -1.7890 C   0  0  0  0  0  0  0  0  0  0  0  0
    3.1543   -0.8094   -1.1617 C   0  0  0  0  0  0  0  0  0  0  0  0
   -1.4598    1.3444    0.3710 C   0  0  0  0  0  0  0  0  0  0  0  0
   -1.3177    2.0469   -0.8495 C   0  0  0  0  0  0  0  0  0  0  0  0
   -0.2710    1.7091   -1.8778 C   0  0  0  0  0  0  0  0  0  0  0  0
   -2.1594    3.1407   -1.1134 C   0  0  0  0  0  0  0  0  0  0  0  0
   -3.1377    3.5270   -0.2032 C   0  0  0  0  0  0  0  0  0  0  0  0
   -3.2681    2.8474    1.0031 C   0  0  0  0  0  0  0  0  0  0  0  0
   -2.4227    1.7706    1.3176 C   0  0  0  0  0  0  0  0  0  0  0  0
   -2.5616    1.1456    2.6789 C   0  0  0  0  0  0  0  0  0  0  0  0
  1  2  1  0
  2  3  1  0
  3  4  2  0
  3  5  1  0
  5  6  1  1
  5  7  1  0
  7  8  1  0
  8  9  2  0
  8 10  1  0
 10 11  1  0
 11 12  2  0
 12 13  1  0
 13 14  2  0
 14 15  1  0
 15 16  2  0
  7 17  1  0
 17 18  2  0
 18 19  1  0
 18 20  1  0
 20 21  2  0
 21 22  1  0
 22 23  2  0
 23 24  1  0
 16 11  1  0
 23 17  1  0
M  END
