
     RDKit          3D

 18 19  0  0  0  0  0  0  0  0999 V2000
   -3.0810   -0.0974    1.9314 C   0  0  0  0  0  0  0  0  0  0  0  0
   -3.1543   -0.4339    0.6355 C   0  0  0  0  0  0  0  0  0  0  0  0
   -2.2333   -0.0136   -0.4834 C   0  0  2  0  0  0  0  0  0  0  0  0
   -2.9363    0.9120   -1.4710 C   0  0  0  0  0  0  0  0  0  0  0  0
   -1.8364   -1.1955   -1.1738 O   0  0  0  0  0  0  0  0  0  0  0  0
   -0.4883   -1.3636   -1.0476 C   0  0  0  0  0  0  0  0  0  0  0  0
    0.0486   -2.3583   -1.5114 O   0  0  0  0  0  0  0  0  0  0  0  0
    0.0802   -0.3207   -0.3735 N   0  0  0  0  0  0  0  0  0  0  0  0
    1.4755   -0.1691   -0.0849 C   0  0  0  0  0  0  0  0  0  0  0  0
    1.9391    0.8247    0.7959 C   0  0  0  0  0  0  0  0  0  0  0  0
    3.3024    0.9703    1.0812 C   0  0  0  0  0  0  0  0  0  0  0  0
    3.8176    2.1983    2.1729 Cl  0  0  0  0  0  0  0  0  0  0  0  0
    4.2443    0.1345    0.5009 C   0  0  0  0  0  0  0  0  0  0  0  0
    3.8085   -0.8537   -0.3689 C   0  0  0  0  0  0  0  0  0  0  0  0
    4.9606   -1.9006   -1.1055 Cl  0  0  0  0  0  0  0  0  0  0  0  0
    2.4469   -1.0082   -0.6589 C   0  0  0  0  0  0  0  0  0  0  0  0
   -0.9015    0.5813   -0.0520 C   0  0  0  0  0  0  0  0  0  0  0  0
   -0.7884    1.6907    0.4561 O   0  0  0  0  0  0  0  0  0  0  0  0
  1  2  2  0
  2  3  1  0
  3  4  1  6
  3  5  1  0
  5  6  1  0
  6  7  2  0
  6  8  1  0
  8  9  1  0
  9 10  2  0
 10 11  1  0
 11 12  1  0
 11 13  2  0
 13 14  1  0
 14 15  1  0
 14 16  2  0
  8 17  1  0
 17 18  2  0
 17  3  1  0
 16  9  1  0
M  END
