
     RDKit          3D

 24 26  0  0  0  0  0  0  0  0999 V2000
    5.1947   -0.7202    1.8678 C   0  0  0  0  0  0  0  0  0  0  0  0
    3.9475    0.1273    1.8259 C   0  0  0  0  0  0  0  0  0  0  0  0
    3.9914    1.3739    2.6828 C   0  0  0  0  0  0  0  0  0  0  0  0
    2.8625   -0.1704    1.0809 C   0  0  0  0  0  0  0  0  0  0  0  0
    2.6861   -1.3347    0.1867 C   0  0  1  0  0  0  0  0  0  0  0  0
    1.8797   -1.2369   -1.0982 C   0  0  1  0  0  0  0  0  0  0  0  0
    1.1612    0.0026   -1.4739 C   0  0  0  0  0  0  0  0  0  0  0  0
    1.6012    0.8364   -2.2458 O   0  0  0  0  0  0  0  0  0  0  0  0
   -0.0530    0.0523   -0.8720 O   0  0  0  0  0  0  0  0  0  0  0  0
   -0.8054    1.2054   -1.2411 C   0  0  0  0  0  0  0  0  0  0  0  0
   -2.1408    1.0355   -0.7341 N   0  0  0  0  0  0  0  0  0  0  0  0
   -2.5700    1.4774    0.4770 C   0  0  0  0  0  0  0  0  0  0  0  0
   -1.9620    2.1071    1.3227 O   0  0  0  0  0  0  0  0  0  0  0  0
   -3.9704    1.0589    0.5983 C   0  0  0  0  0  0  0  0  0  0  0  0
   -4.3024    0.4052   -0.5185 C   0  0  0  0  0  0  0  0  0  0  0  0
   -5.6276   -0.1982   -0.7900 C   0  0  0  0  0  0  0  0  0  0  0  0
   -6.4726   -0.2619    0.4972 C   0  0  0  0  0  0  0  0  0  0  0  0
   -6.3434    1.0122    1.3493 C   0  0  0  0  0  0  0  0  0  0  0  0
   -4.8849    1.3212    1.7375 C   0  0  0  0  0  0  0  0  0  0  0  0
   -3.1275    0.3777   -1.3951 C   0  0  0  0  0  0  0  0  0  0  0  0
   -3.0986   -0.1407   -2.4974 O   0  0  0  0  0  0  0  0  0  0  0  0
    3.3973   -1.4012   -1.1640 C   0  0  0  0  0  0  0  0  0  0  0  0
    4.2649   -0.2579   -1.6434 C   0  0  0  0  0  0  0  0  0  0  0  0
    3.9132   -2.7514   -1.6143 C   0  0  0  0  0  0  0  0  0  0  0  0
  1  2  1  0
  2  3  1  0
  2  4  2  3
  5  4  1  1
  5  6  1  0
  6  7  1  1
  7  8  2  0
  7  9  1  0
  9 10  1  0
 10 11  1  0
 11 12  1  0
 12 13  2  0
 12 14  1  0
 14 15  2  0
 15 16  1  0
 16 17  1  0
 17 18  1  0
 18 19  1  0
 15 20  1  0
 20 21  2  0
  6 22  1  0
 22 23  1  0
 22 24  1  0
 22  5  1  0
 20 11  1  0
 19 14  1  0
M  END
