
     RDKit          3D

 26 28  0  0  0  0  0  0  0  0999 V2000
   -5.9863   -0.7297    0.9621 C   0  0  0  0  0  0  0  0  0  0  0  0
   -4.7188   -0.7060    0.1327 C   0  0  0  0  0  0  0  0  0  0  0  0
   -4.7067   -1.8145   -0.9011 C   0  0  0  0  0  0  0  0  0  0  0  0
   -3.4296   -0.3059    0.8468 C   0  0  0  0  0  0  0  0  0  0  0  0
   -2.1403   -1.0007    0.6233 C   0  0  0  0  0  0  0  0  0  0  0  0
   -2.0458   -2.2164    0.5556 O   0  0  0  0  0  0  0  0  0  0  0  0
   -1.1065   -0.1232    0.5718 O   0  0  0  0  0  0  0  0  0  0  0  0
    0.1936   -0.7484    0.5019 C   0  0  2  0  0  0  0  0  0  0  0  0
    0.5934   -1.1976    1.8577 C   0  0  0  0  0  0  0  0  0  0  0  0
    0.9042   -1.5417    2.9242 N   0  0  0  0  0  0  0  0  0  0  0  0
    1.1581    0.2523   -0.1415 C   0  0  0  0  0  0  0  0  0  0  0  0
    0.7396    0.9970   -1.2624 C   0  0  0  0  0  0  0  0  0  0  0  0
    1.5957    1.9037   -1.8939 C   0  0  0  0  0  0  0  0  0  0  0  0
    2.8979    2.0687   -1.4323 C   0  0  0  0  0  0  0  0  0  0  0  0
    3.3470    1.3096   -0.3553 C   0  0  0  0  0  0  0  0  0  0  0  0
    4.6378    1.5269    0.0726 O   0  0  0  0  0  0  0  0  0  0  0  0
    5.4334    0.4169    0.2540 C   0  0  0  0  0  0  0  0  0  0  0  0
    5.5157   -0.6195   -0.6812 C   0  0  0  0  0  0  0  0  0  0  0  0
    6.3612   -1.7037   -0.4413 C   0  0  0  0  0  0  0  0  0  0  0  0
    7.1391   -1.7397    0.7175 C   0  0  0  0  0  0  0  0  0  0  0  0
    7.0772   -0.6901    1.6345 C   0  0  0  0  0  0  0  0  0  0  0  0
    6.2273    0.3918    1.4009 C   0  0  0  0  0  0  0  0  0  0  0  0
    2.4852    0.4180    0.2968 C   0  0  0  0  0  0  0  0  0  0  0  0
   -4.0420    0.6400   -0.1832 C   0  0  0  0  0  0  0  0  0  0  0  0
   -4.6581    1.9221    0.3353 C   0  0  0  0  0  0  0  0  0  0  0  0
   -3.3744    0.8413   -1.5270 C   0  0  0  0  0  0  0  0  0  0  0  0
  1  2  1  0
  2  3  1  0
  2  4  1  0
  4  5  1  0
  5  6  2  0
  5  7  1  0
  7  8  1  0
  8  9  1  1
  9 10  3  0
  8 11  1  0
 11 12  2  0
 12 13  1  0
 13 14  2  0
 14 15  1  0
 15 16  1  0
 16 17  1  0
 17 18  2  0
 18 19  1  0
 19 20  2  0
 20 21  1  0
 21 22  2  0
 15 23  2  0
  4 24  1  0
 24 25  1  0
 24 26  1  0
 24  2  1  0
 23 11  1  0
 22 17  1  0
M  END
