
     RDKit          3D

 21 21  0  0  0  0  0  0  0  0999 V2000
    0.5873   -3.8300   -0.2132 C   0  0  0  0  0  0  0  0  0  0  0  0
    0.6881   -2.7571    0.8517 C   0  0  0  0  0  0  0  0  0  0  0  0
   -0.0149   -1.6123    0.3972 O   0  0  0  0  0  0  0  0  0  0  0  0
    0.4479   -0.1457    0.9193 P   0  0  1  0  0  5  0  0  0  0  0  0
    0.3674    0.0650    2.8487 S   0  0  0  0  0  0  0  0  0  0  0  0
    1.8688    0.0889    0.1233 N   0  0  0  0  0  0  0  0  0  0  0  0
    2.7133    1.2581    0.3650 C   0  0  2  0  0  0  0  0  0  0  0  0
    2.0596    2.5295   -0.1788 C   0  0  0  0  0  0  0  0  0  0  0  0
    4.0760    0.9804   -0.2997 C   0  0  0  0  0  0  0  0  0  0  0  0
    5.1256    2.0437   -0.0086 C   0  0  0  0  0  0  0  0  0  0  0  0
   -0.5939    0.8124    0.1138 O   0  0  0  0  0  0  0  0  0  0  0  0
   -1.8702    0.4121   -0.1649 C   0  0  0  0  0  0  0  0  0  0  0  0
   -2.8527    0.7101    0.7834 C   0  0  0  0  0  0  0  0  0  0  0  0
   -4.1884    0.3503    0.5628 C   0  0  0  0  0  0  0  0  0  0  0  0
   -5.2281    0.6313    1.6094 C   0  0  0  0  0  0  0  0  0  0  0  0
   -4.5303   -0.3214   -0.6166 C   0  0  0  0  0  0  0  0  0  0  0  0
   -3.5571   -0.6045   -1.5784 C   0  0  0  0  0  0  0  0  0  0  0  0
   -2.2213   -0.2316   -1.3579 C   0  0  0  0  0  0  0  0  0  0  0  0
   -1.2269   -0.5401   -2.3974 N   0  0  0  0  0  4  0  0  0  0  0  0
   -1.5960   -1.2422   -3.3514 O   0  0  0  0  0  0  0  0  0  0  0  0
   -0.0762   -0.0909   -2.2789 O   0  0  0  0  0  1  0  0  0  0  0  0
  1  2  1  0
  2  3  1  0
  3  4  1  0
  4  5  2  0
  4  6  1  6
  6  7  1  0
  7  8  1  6
  7  9  1  0
  9 10  1  0
  4 11  1  0
 11 12  1  0
 12 13  2  0
 13 14  1  0
 14 15  1  0
 14 16  2  0
 16 17  1  0
 17 18  2  0
 18 19  1  0
 19 20  2  0
 19 21  1  0
 18 12  1  0
M  CHG  2  19   1  21  -1
M  END
