
     RDKit          3D

 30 32  0  0  0  0  0  0  0  0999 V2000
   -1.1542   -1.3842    0.5233 C   0  0  0  0  0  0  0  0  0  0  0  0
   -2.2092   -0.2974    0.7645 C   0  0  0  0  0  0  0  0  0  0  0  0
   -1.9715    0.3230    2.1495 C   0  0  0  0  0  0  0  0  0  0  0  0
   -2.2622    0.8024   -0.3368 C   0  0  1  0  0  0  0  0  0  0  0  0
   -0.8616    1.3158   -0.6730 C   0  0  0  0  0  0  0  0  0  0  0  0
   -0.2910    2.1878   -0.0291 O   0  0  0  0  0  0  0  0  0  0  0  0
   -0.3182    0.6631   -1.7318 O   0  0  0  0  0  0  0  0  0  0  0  0
    1.0309    1.0318   -2.0737 C   0  0  2  0  0  0  0  0  0  0  0  0
    1.1377    1.2102   -3.5397 C   0  0  0  0  0  0  0  0  0  0  0  0
    1.2160    1.3586   -4.6900 N   0  0  0  0  0  0  0  0  0  0  0  0
    1.9367   -0.0637   -1.5346 C   0  0  0  0  0  0  0  0  0  0  0  0
    2.0235   -1.3251   -2.1513 C   0  0  0  0  0  0  0  0  0  0  0  0
    2.8417   -2.3247   -1.6198 C   0  0  0  0  0  0  0  0  0  0  0  0
    3.5642   -2.0888   -0.4523 C   0  0  0  0  0  0  0  0  0  0  0  0
    3.4516   -0.8601    0.1943 C   0  0  0  0  0  0  0  0  0  0  0  0
    4.1910   -0.6804    1.3412 O   0  0  0  0  0  0  0  0  0  0  0  0
    3.5228   -0.1821    2.4379 C   0  0  0  0  0  0  0  0  0  0  0  0
    2.3087   -0.7115    2.8839 C   0  0  0  0  0  0  0  0  0  0  0  0
    1.6943   -0.1772    4.0170 C   0  0  0  0  0  0  0  0  0  0  0  0
    2.3004    0.8714    4.7102 C   0  0  0  0  0  0  0  0  0  0  0  0
    3.5257    1.3806    4.2780 C   0  0  0  0  0  0  0  0  0  0  0  0
    4.1420    0.8484    3.1451 C   0  0  0  0  0  0  0  0  0  0  0  0
    2.6599    0.1559   -0.3495 C   0  0  0  0  0  0  0  0  0  0  0  0
   -3.0909    0.4961   -1.5896 C   0  0  0  0  0  0  0  0  0  0  0  0
   -3.4384    1.5679   -2.4372 C   0  0  0  0  0  0  0  0  0  0  0  0
   -4.1856    1.3583   -3.5990 C   0  0  0  0  0  0  0  0  0  0  0  0
   -4.6007    0.0733   -3.9286 C   0  0  0  0  0  0  0  0  0  0  0  0
   -5.5241   -0.1906   -5.3551 Cl  0  0  0  0  0  0  0  0  0  0  0  0
   -4.2750   -0.9998   -3.1053 C   0  0  0  0  0  0  0  0  0  0  0  0
   -3.5258   -0.7898   -1.9424 C   0  0  0  0  0  0  0  0  0  0  0  0
  1  2  1  0
  2  3  1  0
  4  2  1  1
  4  5  1  0
  5  6  2  0
  5  7  1  0
  7  8  1  0
  8  9  1  6
  9 10  3  0
  8 11  1  0
 11 12  2  0
 12 13  1  0
 13 14  2  0
 14 15  1  0
 15 16  1  0
 16 17  1  0
 17 18  2  0
 18 19  1  0
 19 20  2  0
 20 21  1  0
 21 22  2  0
 15 23  2  0
  4 24  1  0
 24 25  2  0
 25 26  1  0
 26 27  2  0
 27 28  1  0
 27 29  1  0
 29 30  2  0
 23 11  1  0
 30 24  1  0
 22 17  1  0
M  END
