
     RDKit          3D

 26 28  0  0  0  0  0  0  0  0999 V2000
   -2.0714   -1.0996    1.2935 C   0  0  0  0  0  0  0  0  0  0  0  0
   -3.3084   -0.2550    1.4976 C   0  0  0  0  0  0  0  0  0  0  0  0
   -4.2078   -0.7752    2.5934 C   0  0  0  0  0  0  0  0  0  0  0  0
   -3.8857    0.4185    0.2631 C   0  0  1  0  0  0  0  0  0  0  0  0
   -5.3421    0.5146    0.0739 C   0  0  0  0  0  0  0  0  0  0  0  0
   -6.1563   -0.4192   -0.4411 C   0  0  0  0  0  0  0  0  0  0  0  0
   -7.8504   -0.1126   -0.5880 Cl  0  0  0  0  0  0  0  0  0  0  0  0
   -5.5728   -1.9528   -0.9769 Cl  0  0  0  0  0  0  0  0  0  0  0  0
   -3.2226    1.2583    1.3372 C   0  0  2  0  0  0  0  0  0  0  0  0
   -1.9113    1.9161    1.1213 C   0  0  0  0  0  0  0  0  0  0  0  0
   -1.1351    2.1038    2.0455 O   0  0  0  0  0  0  0  0  0  0  0  0
   -1.7275    2.2704   -0.1753 O   0  0  0  0  0  0  0  0  0  0  0  0
   -0.4325    2.7935   -0.4866 C   0  0  0  0  0  0  0  0  0  0  0  0
    0.4538    1.6677   -0.9524 C   0  0  0  0  0  0  0  0  0  0  0  0
    0.3232    1.1481   -2.2485 C   0  0  0  0  0  0  0  0  0  0  0  0
    1.1100    0.0721   -2.6632 C   0  0  0  0  0  0  0  0  0  0  0  0
    2.0348   -0.4965   -1.7873 C   0  0  0  0  0  0  0  0  0  0  0  0
    2.1804    0.0213   -0.4989 C   0  0  0  0  0  0  0  0  0  0  0  0
    3.0348   -0.5179    0.4364 O   0  0  0  0  0  0  0  0  0  0  0  0
    4.2958   -0.8747    0.0174 C   0  0  0  0  0  0  0  0  0  0  0  0
    5.1223   -0.0084   -0.7025 C   0  0  0  0  0  0  0  0  0  0  0  0
    6.4055   -0.4191   -1.0660 C   0  0  0  0  0  0  0  0  0  0  0  0
    6.8654   -1.6839   -0.6960 C   0  0  0  0  0  0  0  0  0  0  0  0
    6.0467   -2.5378    0.0439 C   0  0  0  0  0  0  0  0  0  0  0  0
    4.7632   -2.1299    0.4080 C   0  0  0  0  0  0  0  0  0  0  0  0
    1.3801    1.0843   -0.0763 C   0  0  0  0  0  0  0  0  0  0  0  0
  1  2  1  0
  2  3  1  0
  2  4  1  0
  4  5  1  1
  5  6  2  3
  6  7  1  0
  6  8  1  0
  4  9  1  0
  9 10  1  6
 10 11  2  0
 10 12  1  0
 12 13  1  0
 13 14  1  0
 14 15  2  0
 15 16  1  0
 16 17  2  0
 17 18  1  0
 18 19  1  0
 19 20  1  0
 20 21  2  0
 21 22  1  0
 22 23  2  0
 23 24  1  0
 24 25  2  0
 18 26  2  0
  9  2  1  0
 26 14  1  0
 25 20  1  0
M  END
