
     RDKit          3D

 27 29  0  0  0  0  0  0  0  0999 V2000
   -3.0459    0.7246    1.8068 C   0  0  0  0  0  0  0  0  0  0  0  0
   -2.5336   -0.5699    1.1651 C   0  0  1  0  0  0  0  0  0  0  0  0
   -2.5182   -1.5178    2.2703 O   0  0  0  0  0  0  0  0  0  0  0  0
   -3.5460   -1.1327    0.1348 C   0  0  0  0  0  0  0  0  0  0  0  0
   -3.7043   -0.3504   -1.0643 N   0  0  0  0  0  0  0  0  0  0  0  0
   -3.0427   -0.4860   -2.2443 C   0  0  0  0  0  0  0  0  0  0  0  0
   -3.5120    0.3824   -3.1097 N   0  0  0  0  0  0  0  0  0  0  0  0
   -4.4891    1.0235   -2.4020 C   0  0  0  0  0  0  0  0  0  0  0  0
   -4.6590    0.5928   -1.1484 N   0  0  0  0  0  0  0  0  0  0  0  0
   -1.0932   -0.6017    0.6031 C   0  0  0  0  0  0  0  0  0  0  0  0
   -0.5041   -1.8951    0.5016 C   0  0  0  0  0  0  0  0  0  0  0  0
    0.7790   -2.1081   -0.0014 C   0  0  0  0  0  0  0  0  0  0  0  0
    1.5344   -1.0270   -0.4122 C   0  0  0  0  0  0  0  0  0  0  0  0
    2.7821   -1.2834   -0.9280 O   0  0  0  0  0  0  0  0  0  0  0  0
    3.8266   -0.5221   -0.4544 C   0  0  0  0  0  0  0  0  0  0  0  0
    4.7266   -0.0264   -1.3995 C   0  0  0  0  0  0  0  0  0  0  0  0
    5.8263    0.7273   -0.9847 C   0  0  0  0  0  0  0  0  0  0  0  0
    6.0274    0.9671    0.3744 C   0  0  0  0  0  0  0  0  0  0  0  0
    7.3833    1.8944    0.8861 Cl  0  0  0  0  0  0  0  0  0  0  0  0
    5.1424    0.4543    1.3228 C   0  0  0  0  0  0  0  0  0  0  0  0
    4.0420   -0.2997    0.9091 C   0  0  0  0  0  0  0  0  0  0  0  0
    0.9885    0.2542   -0.3613 C   0  0  0  0  0  0  0  0  0  0  0  0
   -0.3175    0.4973    0.1419 C   0  0  0  0  0  0  0  0  0  0  0  0
   -0.7609    1.9484    0.1220 C   0  0  0  0  0  0  0  0  0  0  0  0
   -1.9189    2.1360   -0.5598 F   0  0  0  0  0  0  0  0  0  0  0  0
    0.1383    2.7863   -0.4732 F   0  0  0  0  0  0  0  0  0  0  0  0
   -0.9462    2.4622    1.3674 F   0  0  0  0  0  0  0  0  0  0  0  0
  2  1  1  1
  2  3  1  0
  2  4  1  0
  4  5  1  0
  5  6  1  0
  6  7  2  0
  7  8  1  0
  8  9  2  0
  2 10  1  0
 10 11  2  0
 11 12  1  0
 12 13  2  0
 13 14  1  0
 14 15  1  0
 15 16  2  0
 16 17  1  0
 17 18  2  0
 18 19  1  0
 18 20  1  0
 20 21  2  0
 13 22  1  0
 22 23  2  0
 23 24  1  0
 24 25  1  0
 24 26  1  0
 24 27  1  0
  9  5  1  0
 23 10  1  0
 21 15  1  0
M  END
