
     RDKit          3D

 21 21  0  0  0  0  0  0  0  0999 V2000
   -4.8791   -3.8620    1.9105 C   0  0  0  0  0  0  0  0  0  0  0  0
   -4.6729   -2.7340    0.9179 C   0  0  0  0  0  0  0  0  0  0  0  0
   -3.8330   -1.6064    1.5002 C   0  0  0  0  0  0  0  0  0  0  0  0
   -3.7045   -0.5971    0.5110 O   0  0  0  0  0  0  0  0  0  0  0  0
   -2.4533    0.4358    0.5855 P   0  0  0  0  0  5  0  0  0  0  0  0
   -2.4262    1.4787    2.2320 S   0  0  0  0  0  0  0  0  0  0  0  0
   -2.8007    1.3944   -0.6816 O   0  0  0  0  0  0  0  0  0  0  0  0
   -3.3183    0.8216   -1.8732 C   0  0  0  0  0  0  0  0  0  0  0  0
   -3.2697    1.8504   -2.9958 C   0  0  0  0  0  0  0  0  0  0  0  0
   -1.8465    2.2270   -3.3777 C   0  0  0  0  0  0  0  0  0  0  0  0
   -0.7114   -0.6248    0.0686 S   0  0  0  0  0  0  0  0  0  0  0  0
    0.4255    0.7352   -0.2929 C   0  0  0  0  0  0  0  0  0  0  0  0
    1.7950    0.2249   -0.7039 C   0  0  0  0  0  0  0  0  0  0  0  0
    1.9608   -0.3274   -1.7947 O   0  0  0  0  0  0  0  0  0  0  0  0
    2.8500    0.4842    0.1689 N   0  0  0  0  0  0  0  0  0  0  0  0
    2.6722    0.4167    1.6232 C   0  0  0  0  0  0  0  0  0  0  0  0
    3.6139   -0.6161    2.2348 C   0  0  0  0  0  0  0  0  0  0  0  0
    5.0766   -0.2571    1.9828 C   0  0  0  0  0  0  0  0  0  0  0  0
    5.2662    0.6449    0.7655 C   0  0  0  0  0  0  0  0  0  0  0  0
    4.2320    0.3775   -0.3430 C   0  0  2  0  0  0  0  0  0  0  0  0
    4.4813    1.3758   -1.4831 C   0  0  0  0  0  0  0  0  0  0  0  0
  1  2  1  0
  2  3  1  0
  3  4  1  0
  4  5  1  0
  5  6  2  0
  5  7  1  0
  7  8  1  0
  8  9  1  0
  9 10  1  0
  5 11  1  0
 11 12  1  0
 12 13  1  0
 13 14  2  0
 13 15  1  0
 15 16  1  0
 16 17  1  0
 17 18  1  0
 18 19  1  0
 19 20  1  0
 20 21  1  6
 20 15  1  0
M  END
