
     RDKit          3D

 24 26  0  0  0  0  0  0  0  0999 V2000
   -0.0231   -0.3096   -3.2429 N   0  0  0  0  0  0  0  0  0  0  0  0
   -0.2984   -0.1338   -2.1287 C   0  0  0  0  0  0  0  0  0  0  0  0
   -0.5843    0.0585   -0.6792 C   0  0  1  0  0  0  0  0  0  0  0  0
    0.7736   -0.1615    0.0784 C   0  0  0  0  0  0  0  0  0  0  0  0
    1.9443    0.7365   -0.3630 C   0  0  0  0  0  0  0  0  0  0  0  0
    3.1968    0.4146    0.4183 C   0  0  0  0  0  0  0  0  0  0  0  0
    4.0552   -0.6065   -0.0141 C   0  0  0  0  0  0  0  0  0  0  0  0
    5.2035   -0.9215    0.7157 C   0  0  0  0  0  0  0  0  0  0  0  0
    5.4964   -0.2190    1.8821 C   0  0  0  0  0  0  0  0  0  0  0  0
    6.9098   -0.6074    2.7829 Cl  0  0  0  0  0  0  0  0  0  0  0  0
    4.6506    0.7955    2.3254 C   0  0  0  0  0  0  0  0  0  0  0  0
    3.5018    1.1110    1.5962 C   0  0  0  0  0  0  0  0  0  0  0  0
   -1.0970    1.5010   -0.4385 C   0  0  0  0  0  0  0  0  0  0  0  0
   -2.3668    1.8096   -1.0650 N   0  0  0  0  0  0  0  0  0  0  0  0
   -3.6143    1.7347   -0.5296 C   0  0  0  0  0  0  0  0  0  0  0  0
   -4.4921    2.1639   -1.4067 N   0  0  0  0  0  0  0  0  0  0  0  0
   -3.7155    2.5046   -2.4770 C   0  0  0  0  0  0  0  0  0  0  0  0
   -2.4037    2.3212   -2.3056 N   0  0  0  0  0  0  0  0  0  0  0  0
   -1.6269   -0.9557   -0.1365 C   0  0  0  0  0  0  0  0  0  0  0  0
   -2.4182   -1.7414   -0.9973 C   0  0  0  0  0  0  0  0  0  0  0  0
   -3.3796   -2.6232   -0.4947 C   0  0  0  0  0  0  0  0  0  0  0  0
   -3.5781   -2.7377    0.8764 C   0  0  0  0  0  0  0  0  0  0  0  0
   -2.8193   -1.9662    1.7485 C   0  0  0  0  0  0  0  0  0  0  0  0
   -1.8588   -1.0820    1.2496 C   0  0  0  0  0  0  0  0  0  0  0  0
  1  2  3  0
  3  2  1  6
  3  4  1  0
  4  5  1  0
  5  6  1  0
  6  7  2  0
  7  8  1  0
  8  9  2  0
  9 10  1  0
  9 11  1  0
 11 12  2  0
  3 13  1  0
 13 14  1  0
 14 15  1  0
 15 16  2  0
 16 17  1  0
 17 18  2  0
  3 19  1  0
 19 20  2  0
 20 21  1  0
 21 22  2  0
 22 23  1  0
 23 24  2  0
 12  6  1  0
 18 14  1  0
 24 19  1  0
M  END
