
     RDKit          3D

 21 22  0  0  0  0  0  0  0  0999 V2000
    2.4239   -1.7129   -1.1155 C   0  0  0  0  0  0  0  0  0  0  0  0
    2.6346   -0.8481    0.1380 C   0  0  0  0  0  0  0  0  0  0  0  0
    2.3390   -1.6865    1.3982 C   0  0  0  0  0  0  0  0  0  0  0  0
    4.1419   -0.4854    0.2063 C   0  0  0  0  0  0  0  0  0  0  0  0
    1.7789    0.4687    0.0943 C   0  0  1  0  0  0  0  0  0  0  0  0
    2.4556    1.4061   -0.7666 O   0  0  0  0  0  0  0  0  0  0  0  0
    0.2824    0.3999   -0.3501 C   0  0  1  0  0  0  0  0  0  0  0  0
   -0.6146   -0.5121    0.5122 C   0  0  0  0  0  0  0  0  0  0  0  0
   -2.0929   -0.4992    0.1610 C   0  0  0  0  0  0  0  0  0  0  0  0
   -2.9781    0.2228    0.9820 C   0  0  0  0  0  0  0  0  0  0  0  0
   -4.3404    0.2864    0.6823 C   0  0  0  0  0  0  0  0  0  0  0  0
   -4.8341   -0.3737   -0.4385 C   0  0  0  0  0  0  0  0  0  0  0  0
   -6.5134   -0.2957   -0.8044 Cl  0  0  0  0  0  0  0  0  0  0  0  0
   -3.9801   -1.1002   -1.2620 C   0  0  0  0  0  0  0  0  0  0  0  0
   -2.6164   -1.1630   -0.9638 C   0  0  0  0  0  0  0  0  0  0  0  0
   -1.6170   -2.1010   -2.0160 Cl  0  0  0  0  0  0  0  0  0  0  0  0
   -0.2825    1.7555   -0.4078 N   0  0  0  0  0  0  0  0  0  0  0  0
   -0.3473    2.6962    0.5748 C   0  0  0  0  0  0  0  0  0  0  0  0
   -1.0086    3.7434    0.1394 N   0  0  0  0  0  0  0  0  0  0  0  0
   -1.3117    3.4004   -1.1471 C   0  0  0  0  0  0  0  0  0  0  0  0
   -0.8915    2.1920   -1.5297 N   0  0  0  0  0  0  0  0  0  0  0  0
  1  2  1  0
  2  3  1  0
  2  4  1  0
  2  5  1  0
  5  6  1  6
  5  7  1  0
  7  8  1  1
  8  9  1  0
  9 10  2  0
 10 11  1  0
 11 12  2  0
 12 13  1  0
 12 14  1  0
 14 15  2  0
 15 16  1  0
  7 17  1  0
 17 18  1  0
 18 19  2  0
 19 20  1  0
 20 21  2  0
 15  9  1  0
 21 17  1  0
M  END
