
     RDKit          3D

 24 26  0  0  0  0  0  0  0  0999 V2000
    5.8640   -1.4056    2.4653 C   0  0  0  0  0  0  0  0  0  0  0  0
    5.2909   -0.3655    1.5405 C   0  0  0  0  0  0  0  0  0  0  0  0
    6.3041    0.3493    0.6896 C   0  0  0  0  0  0  0  0  0  0  0  0
    3.9636   -0.1212    1.4985 C   0  0  0  0  0  0  0  0  0  0  0  0
    3.2689    0.8625    0.6567 C   0  0  2  0  0  0  0  0  0  0  0  0
    1.8438    0.6832    0.1791 C   0  0  2  0  0  0  0  0  0  0  0  0
    0.9651   -0.4756    0.4819 C   0  0  0  0  0  0  0  0  0  0  0  0
    1.3578   -1.5583    0.8950 O   0  0  0  0  0  0  0  0  0  0  0  0
   -0.3339   -0.1685    0.2181 O   0  0  0  0  0  0  0  0  0  0  0  0
   -1.2170   -1.2601    0.4678 C   0  0  0  0  0  0  0  0  0  0  0  0
   -2.5549   -0.8164    0.1811 N   0  0  0  0  0  0  0  0  0  0  0  0
   -3.3717   -0.2117    1.0827 C   0  0  0  0  0  0  0  0  0  0  0  0
   -3.1686    0.0369    2.2575 O   0  0  0  0  0  0  0  0  0  0  0  0
   -4.6109    0.1096    0.3679 C   0  0  0  0  0  0  0  0  0  0  0  0
   -4.4717   -0.2898   -0.8998 C   0  0  0  0  0  0  0  0  0  0  0  0
   -5.5058   -0.1574   -1.9542 C   0  0  0  0  0  0  0  0  0  0  0  0
   -6.8697    0.2039   -1.3350 C   0  0  0  0  0  0  0  0  0  0  0  0
   -6.7477    1.2462   -0.2084 C   0  0  0  0  0  0  0  0  0  0  0  0
   -5.8095    0.7832    0.9233 C   0  0  0  0  0  0  0  0  0  0  0  0
   -3.1416   -0.8897   -1.0422 C   0  0  0  0  0  0  0  0  0  0  0  0
   -2.7003   -1.3509   -2.0799 O   0  0  0  0  0  0  0  0  0  0  0  0
    2.9950    0.5798   -0.8161 C   0  0  0  0  0  0  0  0  0  0  0  0
    3.1702    1.7258   -1.7848 C   0  0  0  0  0  0  0  0  0  0  0  0
    3.3494   -0.7599   -1.4246 C   0  0  0  0  0  0  0  0  0  0  0  0
  1  2  1  0
  2  3  1  0
  2  4  2  3
  5  4  1  1
  5  6  1  0
  6  7  1  1
  7  8  2  0
  7  9  1  0
  9 10  1  0
 10 11  1  0
 11 12  1  0
 12 13  2  0
 12 14  1  0
 14 15  2  0
 15 16  1  0
 16 17  1  0
 17 18  1  0
 18 19  1  0
 15 20  1  0
 20 21  2  0
  6 22  1  0
 22 23  1  0
 22 24  1  0
 22  5  1  0
 20 11  1  0
 19 14  1  0
M  END
