
     RDKit          3D

 21 21  0  0  0  0  0  0  0  0999 V2000
   -4.9796   -4.4457   -0.0066 C   0  0  0  0  0  0  0  0  0  0  0  0
   -3.6300   -4.0042    0.5350 C   0  0  0  0  0  0  0  0  0  0  0  0
   -3.3709   -2.5254    0.2726 C   0  0  0  0  0  0  0  0  0  0  0  0
   -2.0905   -2.1965    0.7942 O   0  0  0  0  0  0  0  0  0  0  0  0
   -1.3315   -0.8438    0.2757 P   0  0  0  0  0  5  0  0  0  0  0  0
   -0.7798   -1.0771   -1.5828 S   0  0  0  0  0  0  0  0  0  0  0  0
   -2.5523    0.2000    0.5281 O   0  0  0  0  0  0  0  0  0  0  0  0
   -2.5035    1.5162    0.0058 C   0  0  0  0  0  0  0  0  0  0  0  0
   -3.7979    2.2305    0.3853 C   0  0  0  0  0  0  0  0  0  0  0  0
   -3.8605    3.6309   -0.1995 C   0  0  0  0  0  0  0  0  0  0  0  0
    0.1114   -0.5621    1.7852 S   0  0  0  0  0  0  0  0  0  0  0  0
    0.8558    1.0671    1.6101 C   0  0  0  0  0  0  0  0  0  0  0  0
    1.3167    1.3448    0.1918 C   0  0  0  0  0  0  0  0  0  0  0  0
    0.5569    1.9601   -0.5634 O   0  0  0  0  0  0  0  0  0  0  0  0
    2.5700    0.9002   -0.2223 N   0  0  0  0  0  0  0  0  0  0  0  0
    2.8952    1.0571   -1.6457 C   0  0  0  0  0  0  0  0  0  0  0  0
    4.3969    1.0772   -1.9150 C   0  0  0  0  0  0  0  0  0  0  0  0
    5.1069   -0.1639   -1.3745 C   0  0  0  0  0  0  0  0  0  0  0  0
    4.3241   -0.8608   -0.2618 C   0  0  0  0  0  0  0  0  0  0  0  0
    3.5085    0.1134    0.6044 C   0  0  1  0  0  0  0  0  0  0  0  0
    4.4175    1.0270    1.4394 C   0  0  0  0  0  0  0  0  0  0  0  0
  1  2  1  0
  2  3  1  0
  3  4  1  0
  4  5  1  0
  5  6  2  0
  5  7  1  0
  7  8  1  0
  8  9  1  0
  9 10  1  0
  5 11  1  0
 11 12  1  0
 12 13  1  0
 13 14  2  0
 13 15  1  0
 15 16  1  0
 16 17  1  0
 17 18  1  0
 18 19  1  0
 19 20  1  0
 20 21  1  6
 20 15  1  0
M  END
