
     RDKit          3D

 24 26  0  0  0  0  0  0  0  0999 V2000
   -0.7866    0.8891   -3.1034 N   0  0  0  0  0  0  0  0  0  0  0  0
   -0.7853    0.8151   -1.9447 C   0  0  0  0  0  0  0  0  0  0  0  0
   -0.7098    0.6826   -0.4628 C   0  0  1  0  0  0  0  0  0  0  0  0
    0.8143    0.6310   -0.1015 C   0  0  0  0  0  0  0  0  0  0  0  0
    1.5622   -0.6034   -0.6370 C   0  0  0  0  0  0  0  0  0  0  0  0
    3.0106   -0.5820   -0.2097 C   0  0  0  0  0  0  0  0  0  0  0  0
    3.9651    0.1028   -0.9751 C   0  0  0  0  0  0  0  0  0  0  0  0
    5.3007    0.1411   -0.5689 C   0  0  0  0  0  0  0  0  0  0  0  0
    5.6861   -0.5023    0.6048 C   0  0  0  0  0  0  0  0  0  0  0  0
    7.3311   -0.4533    1.1067 Cl  0  0  0  0  0  0  0  0  0  0  0  0
    4.7475   -1.1840    1.3764 C   0  0  0  0  0  0  0  0  0  0  0  0
    3.4116   -1.2226    0.9711 C   0  0  0  0  0  0  0  0  0  0  0  0
   -1.2934    1.9685    0.1846 C   0  0  0  0  0  0  0  0  0  0  0  0
   -2.6956    2.2085   -0.0850 N   0  0  0  0  0  0  0  0  0  0  0  0
   -3.7742    1.8275    0.6501 C   0  0  0  0  0  0  0  0  0  0  0  0
   -4.8686    2.2905    0.0917 N   0  0  0  0  0  0  0  0  0  0  0  0
   -4.3954    2.9699   -0.9943 C   0  0  0  0  0  0  0  0  0  0  0  0
   -3.0671    2.9612   -1.1327 N   0  0  0  0  0  0  0  0  0  0  0  0
   -1.4527   -0.5523    0.0934 C   0  0  0  0  0  0  0  0  0  0  0  0
   -1.2850   -0.9484    1.4370 C   0  0  0  0  0  0  0  0  0  0  0  0
   -1.9733   -2.0455    1.9609 C   0  0  0  0  0  0  0  0  0  0  0  0
   -2.8508   -2.7662    1.1590 C   0  0  0  0  0  0  0  0  0  0  0  0
   -3.0429   -2.3887   -0.1655 C   0  0  0  0  0  0  0  0  0  0  0  0
   -2.3549   -1.2928   -0.6936 C   0  0  0  0  0  0  0  0  0  0  0  0
  1  2  3  0
  3  2  1  6
  3  4  1  0
  4  5  1  0
  5  6  1  0
  6  7  2  0
  7  8  1  0
  8  9  2  0
  9 10  1  0
  9 11  1  0
 11 12  2  0
  3 13  1  0
 13 14  1  0
 14 15  1  0
 15 16  2  0
 16 17  1  0
 17 18  2  0
  3 19  1  0
 19 20  2  0
 20 21  1  0
 21 22  2  0
 22 23  1  0
 23 24  2  0
 12  6  1  0
 18 14  1  0
 24 19  1  0
M  END
