
     RDKit          3D

 12 11  0  0  0  0  0  0  0  0999 V2000
    2.5794   -1.5160    0.3447 C   0  0  0  0  0  0  0  0  0  0  0  0
    2.3894   -0.1431   -0.3092 C   0  0  2  0  0  0  0  0  0  0  0  0
    2.6255    0.9913    0.6995 C   0  0  0  0  0  0  0  0  0  0  0  0
    4.0817    1.2160    1.0427 C   0  0  0  0  0  0  0  0  0  0  0  0
    5.0261    0.6374    0.5171 O   0  0  0  0  0  0  0  0  0  0  0  0
    1.0076   -0.0265   -0.9881 C   0  0  0  0  0  0  0  0  0  0  0  0
   -0.1960   -0.1037   -0.0395 C   0  0  0  0  0  0  0  0  0  0  0  0
   -1.5114    0.0304   -0.8154 C   0  0  0  0  0  0  0  0  0  0  0  0
   -2.7949   -0.0269    0.0384 C   0  0  0  0  0  0  0  0  0  0  0  0
   -2.9526   -1.3667    0.7583 C   0  0  0  0  0  0  0  0  0  0  0  0
   -2.8837    1.1266    1.0397 C   0  0  0  0  0  0  0  0  0  0  0  0
   -3.9091    0.0893   -0.8564 O   0  0  0  0  0  0  0  0  0  0  0  0
  2  1  1  1
  2  3  1  0
  3  4  1  0
  4  5  2  0
  2  6  1  0
  6  7  1  0
  7  8  1  0
  8  9  1  0
  9 10  1  0
  9 11  1  0
  9 12  1  0
M  END
