
     RDKit          3D

 19 20  0  0  0  0  0  0  0  0999 V2000
    0.2704    2.5641   -0.0615 O   0  0  0  0  0  0  0  0  0  0  0  0
    0.9754    1.5680    0.0088 C   0  0  0  0  0  0  0  0  0  0  0  0
    2.4938    1.6211    0.0479 C   0  0  2  0  0  0  0  0  0  0  0  0
    3.0735    1.8994   -1.6120 Cl  0  0  0  0  0  0  0  0  0  0  0  0
    2.8604    0.2544    0.6226 C   0  0  2  0  0  0  0  0  0  0  0  0
    4.2665   -0.2346    0.3118 C   0  0  0  0  0  0  0  0  0  0  0  0
    4.6084   -1.7593    1.1699 Cl  0  0  0  0  0  0  0  0  0  0  0  0
    1.7566   -0.6459    0.0852 C   0  0  0  0  0  0  0  0  0  0  0  0
    0.5926    0.2128    0.0258 N   0  0  0  0  0  0  0  0  0  0  0  0
   -0.7287   -0.2959   -0.1164 C   0  0  0  0  0  0  0  0  0  0  0  0
   -0.9504   -1.6727   -0.2790 C   0  0  0  0  0  0  0  0  0  0  0  0
   -2.2414   -2.1915   -0.4226 C   0  0  0  0  0  0  0  0  0  0  0  0
   -3.3420   -1.3417   -0.4039 C   0  0  0  0  0  0  0  0  0  0  0  0
   -3.1597    0.0349   -0.2363 C   0  0  0  0  0  0  0  0  0  0  0  0
   -4.3368    0.9794   -0.2255 C   0  0  0  0  0  0  0  0  0  0  0  0
   -5.5329    0.3459   -0.0590 F   0  0  0  0  0  0  0  0  0  0  0  0
   -4.2676    1.9016    0.7741 F   0  0  0  0  0  0  0  0  0  0  0  0
   -4.4496    1.6849   -1.3841 F   0  0  0  0  0  0  0  0  0  0  0  0
   -1.8519    0.5423   -0.1002 C   0  0  0  0  0  0  0  0  0  0  0  0
  1  2  2  0
  2  3  1  0
  3  4  1  6
  3  5  1  0
  5  6  1  6
  6  7  1  0
  5  8  1  0
  8  9  1  0
  9 10  1  0
 10 11  2  0
 11 12  1  0
 12 13  2  0
 13 14  1  0
 14 15  1  0
 15 16  1  0
 15 17  1  0
 15 18  1  0
 14 19  2  0
  9  2  1  0
 19 10  1  0
M  END
