
     RDKit          3D

 20 21  0  0  0  0  0  0  0  0999 V2000
   -2.1828   -1.9596   -0.5231 C   0  0  0  0  0  0  0  0  0  0  0  0
   -2.5613   -0.7163    0.2963 C   0  0  0  0  0  0  0  0  0  0  0  0
   -4.0666   -0.4442    0.0651 C   0  0  0  0  0  0  0  0  0  0  0  0
   -2.3661   -1.0315    1.7925 C   0  0  0  0  0  0  0  0  0  0  0  0
   -1.7480    0.5582   -0.1110 C   0  0  2  0  0  0  0  0  0  0  0  0
   -2.0814    0.9288   -1.4559 O   0  0  0  0  0  0  0  0  0  0  0  0
   -0.2012    0.4844    0.0453 C   0  0  1  0  0  0  0  0  0  0  0  0
    0.5410   -0.0606   -1.1944 C   0  0  0  0  0  0  0  0  0  0  0  0
    1.9672   -0.4649   -0.8810 C   0  0  0  0  0  0  0  0  0  0  0  0
    2.2439   -1.7278   -0.3380 C   0  0  0  0  0  0  0  0  0  0  0  0
    3.5561   -2.0895   -0.0254 C   0  0  0  0  0  0  0  0  0  0  0  0
    4.5959   -1.1901   -0.2516 C   0  0  0  0  0  0  0  0  0  0  0  0
    6.2110   -1.6364    0.1380 Cl  0  0  0  0  0  0  0  0  0  0  0  0
    4.3351    0.0676   -0.7896 C   0  0  0  0  0  0  0  0  0  0  0  0
    3.0238    0.4294   -1.1048 C   0  0  0  0  0  0  0  0  0  0  0  0
    0.3028    1.8279    0.3585 N   0  0  0  0  0  0  0  0  0  0  0  0
    1.0734    2.2056    1.4136 C   0  0  0  0  0  0  0  0  0  0  0  0
    1.2954    3.4981    1.3513 N   0  0  0  0  0  0  0  0  0  0  0  0
    0.6318    3.8731    0.2185 C   0  0  0  0  0  0  0  0  0  0  0  0
    0.0042    2.8856   -0.4276 N   0  0  0  0  0  0  0  0  0  0  0  0
  1  2  1  0
  2  3  1  0
  2  4  1  0
  2  5  1  0
  5  6  1  6
  5  7  1  0
  7  8  1  6
  8  9  1  0
  9 10  2  0
 10 11  1  0
 11 12  2  0
 12 13  1  0
 12 14  1  0
 14 15  2  0
  7 16  1  0
 16 17  1  0
 17 18  2  0
 18 19  1  0
 19 20  2  0
 15  9  1  0
 20 16  1  0
M  END
