
     RDKit          3D

 18 19  0  0  0  0  0  0  0  0999 V2000
    2.9216    2.1625    0.0854 C   0  0  0  0  0  0  0  0  0  0  0  0
    3.0877    0.8776    0.4309 C   0  0  0  0  0  0  0  0  0  0  0  0
    2.2632   -0.3106    0.0004 C   0  0  1  0  0  0  0  0  0  0  0  0
    3.0570   -1.2454   -0.9063 C   0  0  0  0  0  0  0  0  0  0  0  0
    1.8982   -1.0240    1.1789 O   0  0  0  0  0  0  0  0  0  0  0  0
    0.5415   -1.0009    1.3215 C   0  0  0  0  0  0  0  0  0  0  0  0
    0.0231   -1.5000    2.3088 O   0  0  0  0  0  0  0  0  0  0  0  0
   -0.0573   -0.3771    0.2643 N   0  0  0  0  0  0  0  0  0  0  0  0
   -1.4675   -0.1970    0.0854 C   0  0  0  0  0  0  0  0  0  0  0  0
   -1.9785    0.6410   -0.9219 C   0  0  0  0  0  0  0  0  0  0  0  0
   -3.3567    0.8202   -1.0942 C   0  0  0  0  0  0  0  0  0  0  0  0
   -3.9310    1.8637   -2.3379 Cl  0  0  0  0  0  0  0  0  0  0  0  0
   -4.2670    0.1732   -0.2724 C   0  0  0  0  0  0  0  0  0  0  0  0
   -3.7844   -0.6562    0.7287 C   0  0  0  0  0  0  0  0  0  0  0  0
   -4.8961   -1.4743    1.7586 Cl  0  0  0  0  0  0  0  0  0  0  0  0
   -2.4077   -0.8402    0.9099 C   0  0  0  0  0  0  0  0  0  0  0  0
    0.9136    0.0147   -0.6215 C   0  0  0  0  0  0  0  0  0  0  0  0
    0.7827    0.5077   -1.7357 O   0  0  0  0  0  0  0  0  0  0  0  0
  1  2  2  0
  2  3  1  0
  3  4  1  6
  3  5  1  0
  5  6  1  0
  6  7  2  0
  6  8  1  0
  8  9  1  0
  9 10  2  0
 10 11  1  0
 11 12  1  0
 11 13  2  0
 13 14  1  0
 14 15  1  0
 14 16  2  0
  8 17  1  0
 17 18  2  0
 17  3  1  0
 16  9  1  0
M  END
