
     RDKit          3D

 21 22  0  0  0  0  0  0  0  0999 V2000
   -4.9067   -0.0737    1.1907 C   0  0  0  0  0  0  0  0  0  0  0  0
   -4.3074    0.7579    0.0723 C   0  0  0  0  0  0  0  0  0  0  0  0
   -3.2535    0.0283   -0.5758 O   0  0  0  0  0  0  0  0  0  0  0  0
   -2.0168    0.1301   -0.0118 C   0  0  0  0  0  0  0  0  0  0  0  0
   -1.7578    0.8036    0.9785 O   0  0  0  0  0  0  0  0  0  0  0  0
   -0.9736   -0.6339   -0.8163 C   0  0  1  0  0  0  0  0  0  0  0  0
   -1.4821   -1.9590   -1.3688 C   0  0  0  0  0  0  0  0  0  0  0  0
   -0.5188    0.1870   -1.8865 O   0  0  0  0  0  0  0  0  0  0  0  0
    0.7179    0.6735   -1.5688 C   0  0  0  0  0  0  0  0  0  0  0  0
    1.2390    1.5251   -2.2713 O   0  0  0  0  0  0  0  0  0  0  0  0
    1.2041    0.0699   -0.4456 N   0  0  0  0  0  0  0  0  0  0  0  0
    2.4903    0.2899    0.1408 C   0  0  0  0  0  0  0  0  0  0  0  0
    3.4851    1.0381   -0.5120 C   0  0  0  0  0  0  0  0  0  0  0  0
    4.7393    1.2487    0.0744 C   0  0  0  0  0  0  0  0  0  0  0  0
    5.9310    2.1623   -0.7687 Cl  0  0  0  0  0  0  0  0  0  0  0  0
    5.0384    0.7277    1.3247 C   0  0  0  0  0  0  0  0  0  0  0  0
    4.0674   -0.0077    1.9879 C   0  0  0  0  0  0  0  0  0  0  0  0
    4.4117   -0.6549    3.5460 Cl  0  0  0  0  0  0  0  0  0  0  0  0
    2.8111   -0.2252    1.4095 C   0  0  0  0  0  0  0  0  0  0  0  0
    0.2775   -0.8408   -0.0105 C   0  0  0  0  0  0  0  0  0  0  0  0
    0.3957   -1.7168    0.8369 O   0  0  0  0  0  0  0  0  0  0  0  0
  1  2  1  0
  2  3  1  0
  3  4  1  0
  4  5  2  0
  4  6  1  0
  6  7  1  6
  6  8  1  0
  8  9  1  0
  9 10  2  0
  9 11  1  0
 11 12  1  0
 12 13  2  0
 13 14  1  0
 14 15  1  0
 14 16  2  0
 16 17  1  0
 17 18  1  0
 17 19  2  0
 11 20  1  0
 20 21  2  0
 20  6  1  0
 19 12  1  0
M  END
