
     RDKit          3D

 27 29  0  0  0  0  0  0  0  0999 V2000
   -2.6388    1.9802   -0.5799 C   0  0  0  0  0  0  0  0  0  0  0  0
   -2.2384    0.5447   -0.1785 C   0  0  2  0  0  0  0  0  0  0  0  0
   -2.3507   -0.2422   -1.3675 O   0  0  0  0  0  0  0  0  0  0  0  0
   -3.1459   -0.0141    0.9426 C   0  0  0  0  0  0  0  0  0  0  0  0
   -4.5383   -0.1143    0.5697 N   0  0  0  0  0  0  0  0  0  0  0  0
   -5.1715   -1.1739   -0.0003 C   0  0  0  0  0  0  0  0  0  0  0  0
   -6.4349   -0.8729   -0.1936 N   0  0  0  0  0  0  0  0  0  0  0  0
   -6.5292    0.3961    0.3025 C   0  0  0  0  0  0  0  0  0  0  0  0
   -5.3890    0.9074    0.7761 N   0  0  0  0  0  0  0  0  0  0  0  0
   -0.7714    0.4474    0.2950 C   0  0  0  0  0  0  0  0  0  0  0  0
   -0.2147    1.5280    1.0201 C   0  0  0  0  0  0  0  0  0  0  0  0
    1.1079    1.5152    1.4671 C   0  0  0  0  0  0  0  0  0  0  0  0
    1.9172    0.4239    1.1962 C   0  0  0  0  0  0  0  0  0  0  0  0
    3.2035    0.4562    1.6802 O   0  0  0  0  0  0  0  0  0  0  0  0
    4.2121    0.0926    0.8169 C   0  0  0  0  0  0  0  0  0  0  0  0
    5.2033   -0.7498    1.3234 C   0  0  0  0  0  0  0  0  0  0  0  0
    6.2729   -1.1328    0.5118 C   0  0  0  0  0  0  0  0  0  0  0  0
    6.3526   -0.6578   -0.7970 C   0  0  0  0  0  0  0  0  0  0  0  0
    7.6712   -1.1283   -1.7970 Cl  0  0  0  0  0  0  0  0  0  0  0  0
    5.3757    0.2020   -1.2992 C   0  0  0  0  0  0  0  0  0  0  0  0
    4.3055    0.5859   -0.4881 C   0  0  0  0  0  0  0  0  0  0  0  0
    1.3896   -0.6811    0.5311 C   0  0  0  0  0  0  0  0  0  0  0  0
    0.0476   -0.6997    0.0813 C   0  0  0  0  0  0  0  0  0  0  0  0
   -0.4175   -1.9752   -0.6099 C   0  0  0  0  0  0  0  0  0  0  0  0
    0.3988   -3.0393   -0.3306 F   0  0  0  0  0  0  0  0  0  0  0  0
   -0.4266   -1.8926   -1.9674 F   0  0  0  0  0  0  0  0  0  0  0  0
   -1.6542   -2.3966   -0.2165 F   0  0  0  0  0  0  0  0  0  0  0  0
  2  1  1  6
  2  3  1  0
  2  4  1  0
  4  5  1  0
  5  6  1  0
  6  7  2  0
  7  8  1  0
  8  9  2  0
  2 10  1  0
 10 11  2  0
 11 12  1  0
 12 13  2  0
 13 14  1  0
 14 15  1  0
 15 16  2  0
 16 17  1  0
 17 18  2  0
 18 19  1  0
 18 20  1  0
 20 21  2  0
 13 22  1  0
 22 23  2  0
 23 24  1  0
 24 25  1  0
 24 26  1  0
 24 27  1  0
  9  5  1  0
 23 10  1  0
 21 15  1  0
M  END
