
     RDKit          3D

 19 20  0  0  0  0  0  0  0  0999 V2000
   -0.5824    0.5304    2.4319 O   0  0  0  0  0  0  0  0  0  0  0  0
   -1.1661    0.3036    1.3827 C   0  0  0  0  0  0  0  0  0  0  0  0
   -2.6724    0.1499    1.2507 C   0  0  1  0  0  0  0  0  0  0  0  0
   -3.5410    1.3541    2.2160 Cl  0  0  0  0  0  0  0  0  0  0  0  0
   -2.9050    0.3596   -0.2411 C   0  0  2  0  0  0  0  0  0  0  0  0
   -4.2184   -0.1871   -0.7835 C   0  0  0  0  0  0  0  0  0  0  0  0
   -4.4105   -1.9411   -0.5607 Cl  0  0  0  0  0  0  0  0  0  0  0  0
   -1.6504   -0.2454   -0.8519 C   0  0  0  0  0  0  0  0  0  0  0  0
   -0.6108    0.0643    0.1067 N   0  0  0  0  0  0  0  0  0  0  0  0
    0.7738   -0.0032   -0.2135 C   0  0  0  0  0  0  0  0  0  0  0  0
    1.1953   -0.4808   -1.4646 C   0  0  0  0  0  0  0  0  0  0  0  0
    2.5518   -0.5561   -1.7965 C   0  0  0  0  0  0  0  0  0  0  0  0
    3.5184   -0.1502   -0.8827 C   0  0  0  0  0  0  0  0  0  0  0  0
    3.1347    0.3401    0.3700 C   0  0  0  0  0  0  0  0  0  0  0  0
    4.1649    0.7763    1.3831 C   0  0  0  0  0  0  0  0  0  0  0  0
    5.4068    0.9479    0.8463 F   0  0  0  0  0  0  0  0  0  0  0  0
    4.3187   -0.1252    2.3911 F   0  0  0  0  0  0  0  0  0  0  0  0
    3.8554    1.9614    1.9780 F   0  0  0  0  0  0  0  0  0  0  0  0
    1.7641    0.4027    0.6915 C   0  0  0  0  0  0  0  0  0  0  0  0
  1  2  2  0
  2  3  1  0
  3  4  1  1
  3  5  1  0
  5  6  1  6
  6  7  1  0
  5  8  1  0
  8  9  1  0
  9 10  1  0
 10 11  2  0
 11 12  1  0
 12 13  2  0
 13 14  1  0
 14 15  1  0
 15 16  1  0
 15 17  1  0
 15 18  1  0
 14 19  2  0
  9  2  1  0
 19 10  1  0
M  END
