
     RDKit          3D

 21 22  0  0  0  0  0  0  0  0999 V2000
   -2.1729   -2.1394    0.8255 C   0  0  0  0  0  0  0  0  0  0  0  0
   -2.6000   -0.6686    0.6887 C   0  0  0  0  0  0  0  0  0  0  0  0
   -4.1067   -0.6548    0.3147 C   0  0  0  0  0  0  0  0  0  0  0  0
   -2.4928    0.0364    2.0553 C   0  0  0  0  0  0  0  0  0  0  0  0
   -1.7832    0.0759   -0.4252 C   0  0  2  0  0  0  0  0  0  0  0  0
   -2.2847   -0.3937   -1.6982 O   0  0  0  0  0  0  0  0  0  0  0  0
   -0.2325   -0.0878   -0.4772 C   0  0  2  0  0  0  0  0  0  0  0  0
    0.5264    0.2631    0.8160 C   0  0  0  0  0  0  0  0  0  0  0  0
    2.0425    0.2124    0.7085 C   0  0  0  0  0  0  0  0  0  0  0  0
    2.7480    1.4230    0.5864 C   0  0  0  0  0  0  0  0  0  0  0  0
    4.1390    1.4322    0.4687 C   0  0  0  0  0  0  0  0  0  0  0  0
    4.8409    0.2311    0.4744 C   0  0  0  0  0  0  0  0  0  0  0  0
    6.5552    0.2428    0.3313 Cl  0  0  0  0  0  0  0  0  0  0  0  0
    4.1657   -0.9796    0.5943 C   0  0  0  0  0  0  0  0  0  0  0  0
    2.7731   -0.9890    0.7098 C   0  0  0  0  0  0  0  0  0  0  0  0
    1.9983   -2.5258    0.8526 Cl  0  0  0  0  0  0  0  0  0  0  0  0
    0.2845    0.7186   -1.5921 N   0  0  0  0  0  0  0  0  0  0  0  0
    0.9558    0.2813   -2.6925 C   0  0  0  0  0  0  0  0  0  0  0  0
    1.2333    1.3025   -3.4697 N   0  0  0  0  0  0  0  0  0  0  0  0
    0.6997    2.3606   -2.7928 C   0  0  0  0  0  0  0  0  0  0  0  0
    0.0971    2.0547   -1.6400 N   0  0  0  0  0  0  0  0  0  0  0  0
  1  2  1  0
  2  3  1  0
  2  4  1  0
  2  5  1  0
  5  6  1  6
  5  7  1  0
  7  8  1  1
  8  9  1  0
  9 10  2  0
 10 11  1  0
 11 12  2  0
 12 13  1  0
 12 14  1  0
 14 15  2  0
 15 16  1  0
  7 17  1  0
 17 18  1  0
 18 19  2  0
 19 20  1  0
 20 21  2  0
 15  9  1  0
 21 17  1  0
M  END
