
     RDKit          3D

 18 18  0  0  0  0  0  0  0  0999 V2000
   -3.5483   -0.2089    2.4983 C   0  0  0  0  0  0  0  0  0  0  0  0
   -4.2416   -1.0982    1.4806 C   0  0  0  0  0  0  0  0  0  0  0  0
   -3.3416   -1.5600    0.3294 C   0  0  0  0  0  0  0  0  0  0  0  0
   -2.8374   -0.4245   -0.5732 C   0  0  0  0  0  0  0  0  0  0  0  0
   -1.4240    0.0912   -0.2252 C   0  0  2  0  0  0  0  0  0  0  0  0
   -1.1807    1.4951   -0.8280 C   0  0  0  0  0  0  0  0  0  0  0  0
   -1.1882    1.5596   -2.3492 C   0  0  0  0  0  0  0  0  0  0  0  0
   -0.3393   -0.9203   -0.6404 C   0  0  0  0  0  0  0  0  0  0  0  0
    0.9496   -0.4161   -0.2492 O   0  0  0  0  0  0  0  0  0  0  0  0
    1.9943   -1.1826   -0.6601 C   0  0  0  0  0  0  0  0  0  0  0  0
    1.9008   -2.2163   -1.3031 O   0  0  0  0  0  0  0  0  0  0  0  0
    3.2916   -0.5929   -0.2284 C   0  0  0  0  0  0  0  0  0  0  0  0
    4.4576   -1.2404   -0.6723 C   0  0  0  0  0  0  0  0  0  0  0  0
    5.7208   -0.7614   -0.3166 C   0  0  0  0  0  0  0  0  0  0  0  0
    5.8336    0.3693    0.4881 C   0  0  0  0  0  0  0  0  0  0  0  0
    4.6854    1.0203    0.9375 C   0  0  0  0  0  0  0  0  0  0  0  0
    3.4216    0.5440    0.5831 C   0  0  0  0  0  0  0  0  0  0  0  0
    2.3694    1.2599    1.0862 O   0  0  0  0  0  0  0  0  0  0  0  0
  1  2  1  0
  2  3  1  0
  3  4  1  0
  5  4  1  6
  5  6  1  0
  6  7  1  0
  5  8  1  0
  8  9  1  0
  9 10  1  0
 10 11  2  0
 10 12  1  0
 12 13  2  0
 13 14  1  0
 14 15  2  0
 15 16  1  0
 16 17  2  0
 17 18  1  0
 17 12  1  0
M  END
