
     RDKit          3D

 20 21  0  0  0  0  0  0  0  0999 V2000
   -1.0305   -2.1889   -3.0067 C   0  0  0  0  0  0  0  0  0  0  0  0
    0.3050   -1.4834   -2.8909 C   0  0  0  0  0  0  0  0  0  0  0  0
    0.6897   -1.4706   -1.5243 O   0  0  0  0  0  0  0  0  0  0  0  0
    1.7804   -0.3668   -1.0218 P   0  0  2  0  0  5  0  0  0  0  0  0
    3.4579   -0.4617   -2.0250 S   0  0  0  0  0  0  0  0  0  0  0  0
    2.0098   -0.8346    0.5260 O   0  0  0  0  0  0  0  0  0  0  0  0
    0.9939   -0.9156    1.4335 C   0  0  0  0  0  0  0  0  0  0  0  0
    0.8885    0.0765    2.4054 C   0  0  0  0  0  0  0  0  0  0  0  0
   -0.1354    0.0097    3.3524 C   0  0  0  0  0  0  0  0  0  0  0  0
   -1.0382   -1.0605    3.3344 C   0  0  0  0  0  0  0  0  0  0  0  0
   -2.0935   -1.1275    4.3025 C   0  0  0  0  0  0  0  0  0  0  0  0
   -2.9531   -1.1796    5.0803 N   0  0  0  0  0  0  0  0  0  0  0  0
   -0.9044   -2.0674    2.3709 C   0  0  0  0  0  0  0  0  0  0  0  0
    0.1192   -1.9985    1.4234 C   0  0  0  0  0  0  0  0  0  0  0  0
    0.8771    1.1812   -0.9056 C   0  0  0  0  0  0  0  0  0  0  0  0
   -0.5210    1.2057   -0.7649 C   0  0  0  0  0  0  0  0  0  0  0  0
   -1.2094    2.4150   -0.6573 C   0  0  0  0  0  0  0  0  0  0  0  0
   -0.5100    3.6186   -0.6866 C   0  0  0  0  0  0  0  0  0  0  0  0
    0.8760    3.6143   -0.8220 C   0  0  0  0  0  0  0  0  0  0  0  0
    1.5651    2.4048   -0.9290 C   0  0  0  0  0  0  0  0  0  0  0  0
  1  2  1  0
  2  3  1  0
  4  3  1  6
  4  5  2  0
  4  6  1  0
  6  7  1  0
  7  8  2  0
  8  9  1  0
  9 10  2  0
 10 11  1  0
 11 12  3  0
 10 13  1  0
 13 14  2  0
  4 15  1  0
 15 16  2  0
 16 17  1  0
 17 18  2  0
 18 19  1  0
 19 20  2  0
 14  7  1  0
 20 15  1  0
M  END
