
     RDKit          3D

 26 27  0  0  0  0  0  0  0  0999 V2000
   -4.4867   -2.9515   -0.5774 C   0  0  0  0  0  0  0  0  0  0  0  0
   -2.9649   -2.9009   -0.5432 C   0  0  0  0  0  0  0  0  0  0  0  0
   -2.3620   -3.6720    0.6330 C   0  0  0  0  0  0  0  0  0  0  0  0
   -2.6867   -3.0971    2.0050 C   0  0  0  0  0  0  0  0  0  0  0  0
   -2.0546   -1.8189    2.1642 O   0  0  0  0  0  0  0  0  0  0  0  0
   -2.8586   -0.7301    2.2920 C   0  0  0  0  0  0  0  0  0  0  0  0
   -4.0816   -0.7523    2.2405 O   0  0  0  0  0  0  0  0  0  0  0  0
   -2.0579    0.5523    2.5432 C   0  0  1  0  0  0  0  0  0  0  0  0
   -2.3774    1.0272    3.9542 C   0  0  0  0  0  0  0  0  0  0  0  0
   -0.6416    0.4325    2.4773 O   0  0  0  0  0  0  0  0  0  0  0  0
   -0.0332    0.4898    1.2560 C   0  0  0  0  0  0  0  0  0  0  0  0
    1.3624    0.4986    1.3083 C   0  0  0  0  0  0  0  0  0  0  0  0
    2.1234    0.5504    0.1384 C   0  0  0  0  0  0  0  0  0  0  0  0
    1.4842    0.6025   -1.0970 C   0  0  0  0  0  0  0  0  0  0  0  0
    2.1663    0.6118   -2.2936 O   0  0  0  0  0  0  0  0  0  0  0  0
    3.2164    1.4928   -2.3938 C   0  0  0  0  0  0  0  0  0  0  0  0
    4.4596    0.9717   -2.7482 C   0  0  0  0  0  0  0  0  0  0  0  0
    5.5543    1.8289   -2.8945 C   0  0  0  0  0  0  0  0  0  0  0  0
    5.3989    3.2106   -2.7044 C   0  0  0  0  0  0  0  0  0  0  0  0
    6.5217    4.0893   -2.8552 C   0  0  0  0  0  0  0  0  0  0  0  0
    7.4266    4.8074   -2.9735 N   0  0  0  0  0  0  0  0  0  0  0  0
    4.1434    3.7334   -2.3767 C   0  0  0  0  0  0  0  0  0  0  0  0
    3.0582    2.8737   -2.2336 C   0  0  0  0  0  0  0  0  0  0  0  0
    1.8553    3.3977   -1.9617 F   0  0  0  0  0  0  0  0  0  0  0  0
    0.0943    0.5677   -1.1591 C   0  0  0  0  0  0  0  0  0  0  0  0
   -0.6651    0.5190    0.0156 C   0  0  0  0  0  0  0  0  0  0  0  0
  1  2  1  0
  2  3  1  0
  3  4  1  0
  4  5  1  0
  5  6  1  0
  6  7  2  0
  6  8  1  0
  8  9  1  1
  8 10  1  0
 10 11  1  0
 11 12  2  0
 12 13  1  0
 13 14  2  0
 14 15  1  0
 15 16  1  0
 16 17  2  0
 17 18  1  0
 18 19  2  0
 19 20  1  0
 20 21  3  0
 19 22  1  0
 22 23  2  0
 23 24  1  0
 14 25  1  0
 25 26  2  0
 26 11  1  0
 23 16  1  0
M  END
