
     RDKit          3D

 18 19  0  0  0  0  0  0  0  0999 V2000
   -3.5707   -1.8433   -0.1704 C   0  0  0  0  0  0  0  0  0  0  0  0
   -3.0078   -0.9091    0.6103 C   0  0  0  0  0  0  0  0  0  0  0  0
   -2.1914    0.2768    0.1520 C   0  0  2  0  0  0  0  0  0  0  0  0
   -2.8347    1.6014    0.5454 C   0  0  0  0  0  0  0  0  0  0  0  0
   -1.9993    0.2580   -1.2555 O   0  0  0  0  0  0  0  0  0  0  0  0
   -0.6633    0.1925   -1.5256 C   0  0  0  0  0  0  0  0  0  0  0  0
   -0.2751    0.2106   -2.6840 O   0  0  0  0  0  0  0  0  0  0  0  0
    0.0753    0.1376   -0.3764 N   0  0  0  0  0  0  0  0  0  0  0  0
    1.5047    0.0497   -0.3031 C   0  0  0  0  0  0  0  0  0  0  0  0
    2.1913    0.1937    0.9160 C   0  0  0  0  0  0  0  0  0  0  0  0
    3.5878    0.1074    0.9842 C   0  0  0  0  0  0  0  0  0  0  0  0
    4.3798    0.2992    2.5013 Cl  0  0  0  0  0  0  0  0  0  0  0  0
    4.3435   -0.1262   -0.1544 C   0  0  0  0  0  0  0  0  0  0  0  0
    3.6873   -0.2733   -1.3668 C   0  0  0  0  0  0  0  0  0  0  0  0
    4.6037   -0.5716   -2.7940 Cl  0  0  0  0  0  0  0  0  0  0  0  0
    2.2912   -0.1871   -1.4449 C   0  0  0  0  0  0  0  0  0  0  0  0
   -0.7784    0.1859    0.6958 C   0  0  0  0  0  0  0  0  0  0  0  0
   -0.5217    0.1566    1.8934 O   0  0  0  0  0  0  0  0  0  0  0  0
  1  2  2  0
  2  3  1  0
  3  4  1  6
  3  5  1  0
  5  6  1  0
  6  7  2  0
  6  8  1  0
  8  9  1  0
  9 10  2  0
 10 11  1  0
 11 12  1  0
 11 13  2  0
 13 14  1  0
 14 15  1  0
 14 16  2  0
  8 17  1  0
 17 18  2  0
 17  3  1  0
 16  9  1  0
M  END
