
     RDKit          3D

 25 27  0  0  0  0  0  0  0  0999 V2000
   -6.8860    2.6198    0.7543 C   0  0  0  0  0  0  0  0  0  0  0  0
   -6.0979    1.3498    0.9203 C   0  0  0  0  0  0  0  0  0  0  0  0
   -4.7507    1.3514    0.8869 C   0  0  0  0  0  0  0  0  0  0  0  0
   -3.8592    0.1917    1.0374 C   0  0  2  0  0  0  0  0  0  0  0  0
   -2.5007    0.2168    0.3649 C   0  0  2  0  0  0  0  0  0  0  0  0
   -3.5818   -0.7308   -0.1392 C   0  0  0  0  0  0  0  0  0  0  0  0
   -4.1621   -0.4391   -1.5027 C   0  0  0  0  0  0  0  0  0  0  0  0
   -3.4838   -2.2081    0.1598 C   0  0  0  0  0  0  0  0  0  0  0  0
   -1.2996   -0.2994    1.0638 C   0  0  0  0  0  0  0  0  0  0  0  0
   -1.2999   -0.6250    2.2415 O   0  0  0  0  0  0  0  0  0  0  0  0
   -0.2411   -0.3682    0.2193 O   0  0  0  0  0  0  0  0  0  0  0  0
    0.9439   -0.8822    0.8344 C   0  0  0  0  0  0  0  0  0  0  0  0
    2.0706   -0.8793   -0.1385 C   0  0  0  0  0  0  0  0  0  0  0  0
    2.2957   -1.7849   -1.1551 C   0  0  0  0  0  0  0  0  0  0  0  0
    3.4228   -1.4732   -1.8428 O   0  0  0  0  0  0  0  0  0  0  0  0
    3.9417   -0.3490   -1.2715 C   0  0  0  0  0  0  0  0  0  0  0  0
    3.1410    0.0555   -0.2230 C   0  0  0  0  0  0  0  0  0  0  0  0
    5.1919    0.1866   -1.8754 C   0  0  0  0  0  0  0  0  0  0  0  0
    6.3261    0.3062   -0.8824 C   0  0  0  0  0  0  0  0  0  0  0  0
    6.7360    1.5611   -0.4100 C   0  0  0  0  0  0  0  0  0  0  0  0
    7.7798    1.6634    0.5114 C   0  0  0  0  0  0  0  0  0  0  0  0
    8.4215    0.5149    0.9713 C   0  0  0  0  0  0  0  0  0  0  0  0
    8.0205   -0.7383    0.5115 C   0  0  0  0  0  0  0  0  0  0  0  0
    6.9782   -0.8432   -0.4104 C   0  0  0  0  0  0  0  0  0  0  0  0
   -6.9273    0.1115    1.1236 C   0  0  0  0  0  0  0  0  0  0  0  0
  1  2  1  0
  2  3  2  3
  4  3  1  6
  4  5  1  0
  5  6  1  0
  6  7  1  0
  6  8  1  0
  5  9  1  1
  9 10  2  0
  9 11  1  0
 11 12  1  0
 12 13  1  0
 13 14  2  0
 14 15  1  0
 15 16  1  0
 16 17  2  0
 16 18  1  0
 18 19  1  0
 19 20  2  0
 20 21  1  0
 21 22  2  0
 22 23  1  0
 23 24  2  0
  2 25  1  0
  6  4  1  0
 17 13  1  0
 24 19  1  0
M  END
