
     RDKit          3D

 20 21  0  0  0  0  0  0  0  0999 V2000
   -1.3127   -1.6255   -0.4990 C   0  0  0  0  0  0  0  0  0  0  0  0
   -1.7202   -0.5175    0.4900 C   0  0  0  0  0  0  0  0  0  0  0  0
   -2.1225   -1.1962    1.8213 C   0  0  0  0  0  0  0  0  0  0  0  0
   -2.9749    0.1779   -0.0618 C   0  0  0  0  0  0  0  0  0  0  0  0
   -0.5178    0.4571    0.7669 C   0  0  2  0  0  0  0  0  0  0  0  0
   -0.8696    1.4162    1.7656 O   0  0  0  0  0  0  0  0  0  0  0  0
    0.1266    1.1694   -0.4230 C   0  0  0  0  0  0  0  0  0  0  0  0
    1.2969    0.7357   -0.9612 C   0  0  0  0  0  0  0  0  0  0  0  0
    2.1259   -0.3922   -0.5263 C   0  0  0  0  0  0  0  0  0  0  0  0
    2.1877   -1.5488   -1.3114 C   0  0  0  0  0  0  0  0  0  0  0  0
    2.9841   -2.6265   -0.9158 C   0  0  0  0  0  0  0  0  0  0  0  0
    3.7289   -2.5421    0.2588 C   0  0  0  0  0  0  0  0  0  0  0  0
    4.7086   -3.8689    0.7470 Cl  0  0  0  0  0  0  0  0  0  0  0  0
    3.6893   -1.3873    1.0382 C   0  0  0  0  0  0  0  0  0  0  0  0
    2.8923   -0.3100    0.6427 C   0  0  0  0  0  0  0  0  0  0  0  0
   -0.4791    2.3331   -0.9814 N   0  0  0  0  0  0  0  0  0  0  0  0
   -1.5548    3.0792   -0.5134 C   0  0  0  0  0  0  0  0  0  0  0  0
   -1.8348    4.0906   -1.3011 N   0  0  0  0  0  0  0  0  0  0  0  0
   -0.8917    3.9793   -2.2632 C   0  0  0  0  0  0  0  0  0  0  0  0
   -0.0440    2.9648   -2.1238 N   0  0  0  0  0  0  0  0  0  0  0  0
  1  2  1  0
  2  3  1  0
  2  4  1  0
  2  5  1  0
  5  6  1  1
  5  7  1  0
  7  8  2  0
  8  9  1  0
  9 10  2  0
 10 11  1  0
 11 12  2  0
 12 13  1  0
 12 14  1  0
 14 15  2  0
  7 16  1  0
 16 17  1  0
 17 18  2  0
 18 19  1  0
 19 20  2  0
 15  9  1  0
 20 16  1  0
M  END
