
     RDKit          3D

 24 25  0  0  0  0  0  0  0  0999 V2000
   -1.4170    4.4303    0.3517 C   0  0  0  0  0  0  0  0  0  0  0  0
   -1.4160    3.1863    1.0551 O   0  0  0  0  0  0  0  0  0  0  0  0
   -0.7041    2.1960    0.4446 C   0  0  0  0  0  0  0  0  0  0  0  0
   -0.0679    2.3593   -0.5910 O   0  0  0  0  0  0  0  0  0  0  0  0
   -0.7166    0.8908    1.2702 C   0  0  1  0  0  0  0  0  0  0  0  0
   -1.9755    0.7800    2.1463 C   0  0  0  0  0  0  0  0  0  0  0  0
   -0.4551   -0.2921    0.3986 N   0  0  0  0  0  0  0  0  0  0  0  0
    0.8196   -0.7039   -0.0266 C   0  0  0  0  0  0  0  0  0  0  0  0
    0.9873   -1.7193   -0.7100 O   0  0  0  0  0  0  0  0  0  0  0  0
    2.0242    0.1093    0.4475 C   0  0  0  0  0  0  0  0  0  0  0  0
    3.2007    0.0713   -0.5008 C   0  0  0  0  0  0  0  0  0  0  0  0
    3.2421    0.9358   -1.6043 C   0  0  0  0  0  0  0  0  0  0  0  0
    4.3241    0.9062   -2.4850 C   0  0  0  0  0  0  0  0  0  0  0  0
    5.3705    0.0099   -2.2752 C   0  0  0  0  0  0  0  0  0  0  0  0
    5.3335   -0.8611   -1.1876 C   0  0  0  0  0  0  0  0  0  0  0  0
    4.2526   -0.8334   -0.3048 C   0  0  0  0  0  0  0  0  0  0  0  0
   -1.5580   -1.1503    0.0843 C   0  0  0  0  0  0  0  0  0  0  0  0
   -2.4732   -0.8012   -0.9320 C   0  0  0  0  0  0  0  0  0  0  0  0
   -2.3077    0.4146   -1.7987 C   0  0  0  0  0  0  0  0  0  0  0  0
   -3.5825   -1.6305   -1.1666 C   0  0  0  0  0  0  0  0  0  0  0  0
   -3.7618   -2.8068   -0.4446 C   0  0  0  0  0  0  0  0  0  0  0  0
   -2.8343   -3.1739    0.5250 C   0  0  0  0  0  0  0  0  0  0  0  0
   -1.7315   -2.3539    0.8101 C   0  0  0  0  0  0  0  0  0  0  0  0
   -0.7486   -2.8255    1.8485 C   0  0  0  0  0  0  0  0  0  0  0  0
  1  2  1  0
  2  3  1  0
  3  4  2  0
  3  5  1  0
  5  6  1  6
  5  7  1  0
  7  8  1  0
  8  9  2  0
  8 10  1  0
 10 11  1  0
 11 12  2  0
 12 13  1  0
 13 14  2  0
 14 15  1  0
 15 16  2  0
  7 17  1  0
 17 18  2  0
 18 19  1  0
 18 20  1  0
 20 21  2  0
 21 22  1  0
 22 23  2  0
 23 24  1  0
 16 11  1  0
 23 17  1  0
M  END
