
     RDKit          3D

 21 22  0  0  0  0  0  0  0  0999 V2000
    4.9933   -0.4198    0.4013 C   0  0  0  0  0  0  0  0  0  0  0  0
    4.1119   -1.4697   -0.2484 C   0  0  0  0  0  0  0  0  0  0  0  0
    3.0584   -0.8385   -0.9933 O   0  0  0  0  0  0  0  0  0  0  0  0
    1.9355   -0.5160   -0.2911 C   0  0  0  0  0  0  0  0  0  0  0  0
    1.7722   -0.7436    0.9018 O   0  0  0  0  0  0  0  0  0  0  0  0
    0.8694    0.0903   -1.1940 C   0  0  1  0  0  0  0  0  0  0  0  0
    1.4320    1.0262   -2.2558 C   0  0  0  0  0  0  0  0  0  0  0  0
    0.1389   -0.9586   -1.8203 O   0  0  0  0  0  0  0  0  0  0  0  0
   -1.0738   -1.0760   -1.2016 C   0  0  0  0  0  0  0  0  0  0  0  0
   -1.8090   -2.0128   -1.4701 O   0  0  0  0  0  0  0  0  0  0  0  0
   -1.2800   -0.0420   -0.3353 N   0  0  0  0  0  0  0  0  0  0  0  0
   -2.4618    0.1884    0.4372 C   0  0  0  0  0  0  0  0  0  0  0  0
   -2.4920    1.1627    1.4510 C   0  0  0  0  0  0  0  0  0  0  0  0
   -3.6456    1.3873    2.2118 C   0  0  0  0  0  0  0  0  0  0  0  0
   -3.6323    2.5884    3.4455 Cl  0  0  0  0  0  0  0  0  0  0  0  0
   -4.7995    0.6507    1.9889 C   0  0  0  0  0  0  0  0  0  0  0  0
   -4.7881   -0.3187    0.9969 C   0  0  0  0  0  0  0  0  0  0  0  0
   -6.2106   -1.2430    0.7006 Cl  0  0  0  0  0  0  0  0  0  0  0  0
   -3.6387   -0.5521    0.2315 C   0  0  0  0  0  0  0  0  0  0  0  0
   -0.1878    0.7839   -0.3825 C   0  0  0  0  0  0  0  0  0  0  0  0
   -0.0491    1.9071    0.0852 O   0  0  0  0  0  0  0  0  0  0  0  0
  1  2  1  0
  2  3  1  0
  3  4  1  0
  4  5  2  0
  4  6  1  0
  6  7  1  6
  6  8  1  0
  8  9  1  0
  9 10  2  0
  9 11  1  0
 11 12  1  0
 12 13  2  0
 13 14  1  0
 14 15  1  0
 14 16  2  0
 16 17  1  0
 17 18  1  0
 17 19  2  0
 11 20  1  0
 20 21  2  0
 20  6  1  0
 19 12  1  0
M  END
