
     RDKit          3D

 25 27  0  0  0  0  0  0  0  0999 V2000
   -4.6577    2.4161    0.4397 C   0  0  0  0  0  0  0  0  0  0  0  0
   -3.8871    1.1431    0.0057 C   0  0  0  0  0  0  0  0  0  0  0  0
   -4.9249    0.0097   -0.0967 C   0  0  0  0  0  0  0  0  0  0  0  0
   -3.3054    1.4062   -1.3933 C   0  0  0  0  0  0  0  0  0  0  0  0
   -2.7692    0.8689    1.0717 C   0  0  1  0  0  0  0  0  0  0  0  0
   -3.3756    0.6280    2.3568 O   0  0  0  0  0  0  0  0  0  0  0  0
   -1.6494   -0.1808    0.7950 C   0  0  2  0  0  0  0  0  0  0  0  0
   -0.8630    0.2271   -0.3338 O   0  0  0  0  0  0  0  0  0  0  0  0
    0.4950    0.1019   -0.2496 C   0  0  0  0  0  0  0  0  0  0  0  0
    1.2153    0.9591   -1.0811 C   0  0  0  0  0  0  0  0  0  0  0  0
    2.6127    0.9182   -1.1059 C   0  0  0  0  0  0  0  0  0  0  0  0
    3.3218    0.0094   -0.3070 C   0  0  0  0  0  0  0  0  0  0  0  0
    4.7928   -0.0374   -0.3298 C   0  0  0  0  0  0  0  0  0  0  0  0
    5.5387    0.0635    0.8567 C   0  0  0  0  0  0  0  0  0  0  0  0
    6.9355    0.0195    0.8362 C   0  0  0  0  0  0  0  0  0  0  0  0
    7.6108   -0.1275   -0.3726 C   0  0  0  0  0  0  0  0  0  0  0  0
    6.8911   -0.2300   -1.5601 C   0  0  0  0  0  0  0  0  0  0  0  0
    5.4944   -0.1846   -1.5381 C   0  0  0  0  0  0  0  0  0  0  0  0
    2.5816   -0.8603    0.5096 C   0  0  0  0  0  0  0  0  0  0  0  0
    1.1814   -0.8217    0.5358 C   0  0  0  0  0  0  0  0  0  0  0  0
   -2.1646   -1.5297    0.5940 N   0  0  0  0  0  0  0  0  0  0  0  0
   -2.0253   -2.3524   -0.4815 C   0  0  0  0  0  0  0  0  0  0  0  0
   -2.6097   -3.5024   -0.2355 N   0  0  0  0  0  0  0  0  0  0  0  0
   -3.0970   -3.3403    1.0280 C   0  0  0  0  0  0  0  0  0  0  0  0
   -2.8542   -2.1494    1.5835 N   0  0  0  0  0  0  0  0  0  0  0  0
  1  2  1  0
  2  3  1  0
  2  4  1  0
  2  5  1  0
  5  6  1  1
  5  7  1  0
  7  8  1  6
  8  9  1  0
  9 10  2  0
 10 11  1  0
 11 12  2  0
 12 13  1  0
 13 14  2  0
 14 15  1  0
 15 16  2  0
 16 17  1  0
 17 18  2  0
 12 19  1  0
 19 20  2  0
  7 21  1  0
 21 22  1  0
 22 23  2  0
 23 24  1  0
 24 25  2  0
 20  9  1  0
 25 21  1  0
 18 13  1  0
M  END
