
     RDKit          3D

 21 22  0  0  0  0  0  0  0  0999 V2000
    4.9938    0.0822    0.4602 C   0  0  0  0  0  0  0  0  0  0  0  0
    4.1287    1.3284    0.4537 C   0  0  0  0  0  0  0  0  0  0  0  0
    3.0751    1.1936   -0.5131 O   0  0  0  0  0  0  0  0  0  0  0  0
    1.9431    0.5665   -0.0852 C   0  0  0  0  0  0  0  0  0  0  0  0
    1.7721    0.1390    1.0504 O   0  0  0  0  0  0  0  0  0  0  0  0
    0.8785    0.5357   -1.1738 C   0  0  2  0  0  0  0  0  0  0  0  0
    1.4403    0.2856   -2.5672 C   0  0  0  0  0  0  0  0  0  0  0  0
    0.1640    1.7668   -1.1606 O   0  0  0  0  0  0  0  0  0  0  0  0
   -1.0525    1.5595   -0.5740 C   0  0  0  0  0  0  0  0  0  0  0  0
   -1.7757    2.5080   -0.3143 O   0  0  0  0  0  0  0  0  0  0  0  0
   -1.2767    0.2280   -0.3765 N   0  0  0  0  0  0  0  0  0  0  0  0
   -2.4672   -0.3567    0.1595 C   0  0  0  0  0  0  0  0  0  0  0  0
   -2.5160   -1.7167    0.5143 C   0  0  0  0  0  0  0  0  0  0  0  0
   -3.6782   -2.2906    1.0433 C   0  0  0  0  0  0  0  0  0  0  0  0
   -3.6876   -3.9595    1.4671 Cl  0  0  0  0  0  0  0  0  0  0  0  0
   -4.8225   -1.5311    1.2364 C   0  0  0  0  0  0  0  0  0  0  0  0
   -4.7928   -0.1863    0.8976 C   0  0  0  0  0  0  0  0  0  0  0  0
   -6.2032    0.7751    1.1257 Cl  0  0  0  0  0  0  0  0  0  0  0  0
   -3.6346    0.3975    0.3692 C   0  0  0  0  0  0  0  0  0  0  0  0
   -0.1926   -0.4657   -0.8465 C   0  0  0  0  0  0  0  0  0  0  0  0
   -0.0695   -1.6695   -1.0348 O   0  0  0  0  0  0  0  0  0  0  0  0
  1  2  1  0
  2  3  1  0
  3  4  1  0
  4  5  2  0
  4  6  1  0
  6  7  1  6
  6  8  1  0
  8  9  1  0
  9 10  2  0
  9 11  1  0
 11 12  1  0
 12 13  2  0
 13 14  1  0
 14 15  1  0
 14 16  2  0
 16 17  1  0
 17 18  1  0
 17 19  2  0
 11 20  1  0
 20 21  2  0
 20  6  1  0
 19 12  1  0
M  END
