
     RDKit          3D

 20 21  0  0  0  0  0  0  0  0999 V2000
    4.1865   -0.1722   -0.8836 C   0  0  0  0  0  0  0  0  0  0  0  0
    3.5737    0.8817    0.0257 C   0  0  0  0  0  0  0  0  0  0  0  0
    2.4013    0.3613    0.8646 C   0  0  0  0  0  0  0  0  0  0  0  0
    1.2001   -0.0838    0.0105 C   0  0  0  0  0  0  0  0  0  0  0  0
   -0.1091   -0.3966    0.7898 C   0  0  1  0  0  0  0  0  0  0  0  0
    0.2996   -1.2714    1.8795 O   0  0  0  0  0  0  0  0  0  0  0  0
   -0.7603    0.8436    1.4554 C   0  0  0  0  0  0  0  0  0  0  0  0
   -1.1683    1.9008    0.5667 N   0  0  0  0  0  0  0  0  0  0  0  0
   -2.4113    2.1423    0.0711 C   0  0  0  0  0  0  0  0  0  0  0  0
   -2.3931    3.2493   -0.6342 N   0  0  0  0  0  0  0  0  0  0  0  0
   -1.0971    3.6647   -0.5198 C   0  0  0  0  0  0  0  0  0  0  0  0
   -0.3134    2.8830    0.2286 N   0  0  0  0  0  0  0  0  0  0  0  0
   -1.1815   -1.2004    0.0119 C   0  0  0  0  0  0  0  0  0  0  0  0
   -1.9602   -2.1323    0.7493 C   0  0  0  0  0  0  0  0  0  0  0  0
   -2.9653   -2.9053    0.1615 C   0  0  0  0  0  0  0  0  0  0  0  0
   -3.2339   -2.7626   -1.1890 C   0  0  0  0  0  0  0  0  0  0  0  0
   -4.4695   -3.7050   -1.9237 Cl  0  0  0  0  0  0  0  0  0  0  0  0
   -2.5123   -1.8494   -1.9458 C   0  0  0  0  0  0  0  0  0  0  0  0
   -1.5008   -1.0701   -1.3571 C   0  0  0  0  0  0  0  0  0  0  0  0
   -0.7572    0.0540   -2.4352 Cl  0  0  0  0  0  0  0  0  0  0  0  0
  1  2  1  0
  2  3  1  0
  3  4  1  0
  4  5  1  0
  5  6  1  1
  5  7  1  0
  7  8  1  0
  8  9  1  0
  9 10  2  0
 10 11  1  0
 11 12  2  0
  5 13  1  0
 13 14  2  0
 14 15  1  0
 15 16  2  0
 16 17  1  0
 16 18  1  0
 18 19  2  0
 19 20  1  0
 12  8  1  0
 19 13  1  0
M  END
