
     RDKit          3D

 18 18  0  0  0  0  0  0  0  0999 V2000
   -3.4230    2.8471    1.5543 C   0  0  0  0  0  0  0  0  0  0  0  0
   -3.0537    2.8358    0.0770 C   0  0  0  0  0  0  0  0  0  0  0  0
   -2.4040    1.5336   -0.3862 C   0  0  0  0  0  0  0  0  0  0  0  0
   -0.7553    1.2835    0.3257 S   0  0  0  0  0  0  0  0  0  0  0  0
   -0.1916   -0.5653   -0.4620 P   0  0  2  0  0  5  0  0  0  0  0  0
   -0.2419   -0.5462   -1.9652 O   0  0  0  0  0  0  0  0  0  0  0  0
   -1.1791   -1.6972    0.1453 O   0  0  0  0  0  0  0  0  0  0  0  0
   -1.0505   -3.0089   -0.3767 C   0  0  0  0  0  0  0  0  0  0  0  0
   -1.9795   -3.9277    0.3893 C   0  0  0  0  0  0  0  0  0  0  0  0
    1.2341   -1.0343    0.1269 O   0  0  0  0  0  0  0  0  0  0  0  0
    2.4240   -0.3854   -0.0557 C   0  0  0  0  0  0  0  0  0  0  0  0
    2.6338    0.5496   -1.0706 C   0  0  0  0  0  0  0  0  0  0  0  0
    3.8790    1.1724   -1.2024 C   0  0  0  0  0  0  0  0  0  0  0  0
    4.9136    0.8557   -0.3240 C   0  0  0  0  0  0  0  0  0  0  0  0
    6.5932    1.7020   -0.5103 Br  0  0  0  0  0  0  0  0  0  0  0  0
    4.7203   -0.0819    0.6863 C   0  0  0  0  0  0  0  0  0  0  0  0
    3.4764   -0.7022    0.8156 C   0  0  0  0  0  0  0  0  0  0  0  0
    3.2690   -1.8623    2.0803 Cl  0  0  0  0  0  0  0  0  0  0  0  0
  1  2  1  0
  2  3  1  0
  3  4  1  0
  4  5  1  0
  5  6  2  0
  5  7  1  1
  7  8  1  0
  8  9  1  0
  5 10  1  0
 10 11  1  0
 11 12  2  0
 12 13  1  0
 13 14  2  0
 14 15  1  0
 14 16  1  0
 16 17  2  0
 17 18  1  0
 17 11  1  0
M  END
