
     RDKit          3D

 26 27  0  0  0  0  0  0  0  0999 V2000
    7.0458    2.8310    2.8389 C   0  0  0  0  0  0  0  0  0  0  0  0
    6.4093    2.6243    1.4738 C   0  0  0  0  0  0  0  0  0  0  0  0
    5.2407    1.6456    1.5441 C   0  0  0  0  0  0  0  0  0  0  0  0
    4.5992    1.4352    0.1770 C   0  0  0  0  0  0  0  0  0  0  0  0
    3.5168    0.5071    0.3337 O   0  0  0  0  0  0  0  0  0  0  0  0
    2.8531    0.2180   -0.8279 C   0  0  0  0  0  0  0  0  0  0  0  0
    3.1305    0.7017   -1.9176 O   0  0  0  0  0  0  0  0  0  0  0  0
    1.7154   -0.7678   -0.5419 C   0  0  2  0  0  0  0  0  0  0  0  0
    2.3052   -2.1035   -0.1012 C   0  0  0  0  0  0  0  0  0  0  0  0
    0.9682   -0.9624   -1.7449 O   0  0  0  0  0  0  0  0  0  0  0  0
   -0.3838   -1.1335   -1.6567 C   0  0  0  0  0  0  0  0  0  0  0  0
   -1.0715   -0.9458   -2.8589 C   0  0  0  0  0  0  0  0  0  0  0  0
   -2.4580   -1.0976   -2.9176 C   0  0  0  0  0  0  0  0  0  0  0  0
   -3.1666   -1.4335   -1.7666 C   0  0  0  0  0  0  0  0  0  0  0  0
   -4.5258   -1.6042   -1.9005 O   0  0  0  0  0  0  0  0  0  0  0  0
   -5.3224   -1.0744   -0.9139 C   0  0  0  0  0  0  0  0  0  0  0  0
   -6.2481   -1.9290   -0.3133 C   0  0  0  0  0  0  0  0  0  0  0  0
   -7.1094   -1.4385    0.6725 C   0  0  0  0  0  0  0  0  0  0  0  0
   -7.0570   -0.0887    1.0463 C   0  0  0  0  0  0  0  0  0  0  0  0
   -7.9410    0.4118    2.0578 C   0  0  0  0  0  0  0  0  0  0  0  0
   -8.6549    0.8141    2.8791 N   0  0  0  0  0  0  0  0  0  0  0  0
   -6.1457    0.7704    0.4254 C   0  0  0  0  0  0  0  0  0  0  0  0
   -5.2907    0.2749   -0.5556 C   0  0  0  0  0  0  0  0  0  0  0  0
   -4.4475    1.1252   -1.1576 F   0  0  0  0  0  0  0  0  0  0  0  0
   -2.4845   -1.6578   -0.5687 C   0  0  0  0  0  0  0  0  0  0  0  0
   -1.0942   -1.5034   -0.5140 C   0  0  0  0  0  0  0  0  0  0  0  0
  1  2  1  0
  2  3  1  0
  3  4  1  0
  4  5  1  0
  5  6  1  0
  6  7  2  0
  6  8  1  0
  8  9  1  6
  8 10  1  0
 10 11  1  0
 11 12  2  0
 12 13  1  0
 13 14  2  0
 14 15  1  0
 15 16  1  0
 16 17  2  0
 17 18  1  0
 18 19  2  0
 19 20  1  0
 20 21  3  0
 19 22  1  0
 22 23  2  0
 23 24  1  0
 14 25  1  0
 25 26  2  0
 26 11  1  0
 23 16  1  0
M  END
