
     RDKit          3D

 20 21  0  0  0  0  0  0  0  0999 V2000
   -4.3570   -0.1383    0.6011 C   0  0  0  0  0  0  0  0  0  0  0  0
   -3.8343   -1.1906   -0.3672 C   0  0  0  0  0  0  0  0  0  0  0  0
   -2.4161   -1.0187   -0.6899 N   0  0  0  0  0  0  0  0  0  0  0  0
   -1.4585   -1.8919   -0.0029 C   0  0  0  0  0  0  0  0  0  0  0  0
   -1.2683   -1.5342    1.4616 C   0  0  0  0  0  0  0  0  0  0  0  0
   -2.0741   -0.0020   -1.5891 C   0  0  0  0  0  0  0  0  0  0  0  0
   -2.9493    0.6778   -2.1360 O   0  0  0  0  0  0  0  0  0  0  0  0
   -0.5783    0.2159   -1.9229 C   0  0  1  0  0  0  0  0  0  0  0  0
   -0.4289    1.2978   -2.9935 C   0  0  0  0  0  0  0  0  0  0  0  0
    0.0887    0.6387   -0.7337 O   0  0  0  0  0  0  0  0  0  0  0  0
    1.4393    0.4382   -0.5833 C   0  0  0  0  0  0  0  0  0  0  0  0
    2.2517   -0.2160   -1.5146 C   0  0  0  0  0  0  0  0  0  0  0  0
    3.6117   -0.3932   -1.2640 C   0  0  0  0  0  0  0  0  0  0  0  0
    4.1738    0.0809   -0.0818 C   0  0  0  0  0  0  0  0  0  0  0  0
    3.3868    0.7460    0.8673 C   0  0  0  0  0  0  0  0  0  0  0  0
    3.9598    1.2271    2.0568 C   0  0  0  0  0  0  0  0  0  0  0  0
    3.1870    1.8955    3.0058 C   0  0  0  0  0  0  0  0  0  0  0  0
    1.8316    2.0938    2.7767 C   0  0  0  0  0  0  0  0  0  0  0  0
    1.2490    1.6205    1.5993 C   0  0  0  0  0  0  0  0  0  0  0  0
    2.0044    0.9351    0.6216 C   0  0  0  0  0  0  0  0  0  0  0  0
  1  2  1  0
  2  3  1  0
  3  4  1  0
  4  5  1  0
  3  6  1  0
  6  7  2  0
  6  8  1  0
  8  9  1  6
  8 10  1  0
 10 11  1  0
 11 12  2  0
 12 13  1  0
 13 14  2  0
 14 15  1  0
 15 16  2  0
 16 17  1  0
 17 18  2  0
 18 19  1  0
 19 20  2  0
 20 11  1  0
 20 15  1  0
M  END
