
     RDKit          3D

 20 21  0  0  0  0  0  0  0  0999 V2000
   -3.8064   -1.3194   -0.7482 C   0  0  0  0  0  0  0  0  0  0  0  0
   -2.9358   -0.6917    0.3287 C   0  0  0  0  0  0  0  0  0  0  0  0
   -1.5064   -0.4651   -0.1680 C   0  0  0  0  0  0  0  0  0  0  0  0
   -0.6369    0.1659    0.9264 C   0  0  0  0  0  0  0  0  0  0  0  0
    0.8316    0.4649    0.5105 C   0  0  2  0  0  0  0  0  0  0  0  0
    1.5041    1.0936    1.6202 O   0  0  0  0  0  0  0  0  0  0  0  0
    0.9050    1.5217   -0.6290 C   0  0  0  0  0  0  0  0  0  0  0  0
    0.2176    2.7656   -0.3410 N   0  0  0  0  0  0  0  0  0  0  0  0
    0.6383    3.7973    0.4390 C   0  0  0  0  0  0  0  0  0  0  0  0
   -0.2435    4.7697    0.3931 N   0  0  0  0  0  0  0  0  0  0  0  0
   -1.1974    4.2785   -0.4513 C   0  0  0  0  0  0  0  0  0  0  0  0
   -0.9567    3.0570   -0.9357 N   0  0  0  0  0  0  0  0  0  0  0  0
    1.5998   -0.8419    0.1967 C   0  0  0  0  0  0  0  0  0  0  0  0
    1.9278   -1.1781   -1.1368 C   0  0  0  0  0  0  0  0  0  0  0  0
    2.6088   -2.3586   -1.4574 C   0  0  0  0  0  0  0  0  0  0  0  0
    2.9776   -3.2409   -0.4531 C   0  0  0  0  0  0  0  0  0  0  0  0
    3.8124   -4.6907   -0.8480 Cl  0  0  0  0  0  0  0  0  0  0  0  0
    2.6683   -2.9555    0.8687 C   0  0  0  0  0  0  0  0  0  0  0  0
    1.9858   -1.7739    1.1924 C   0  0  0  0  0  0  0  0  0  0  0  0
    1.6580   -1.5506    2.8804 Cl  0  0  0  0  0  0  0  0  0  0  0  0
  1  2  1  0
  2  3  1  0
  3  4  1  0
  4  5  1  0
  5  6  1  1
  5  7  1  0
  7  8  1  0
  8  9  1  0
  9 10  2  0
 10 11  1  0
 11 12  2  0
  5 13  1  0
 13 14  2  0
 14 15  1  0
 15 16  2  0
 16 17  1  0
 16 18  1  0
 18 19  2  0
 19 20  1  0
 12  8  1  0
 19 13  1  0
M  END
