
     RDKit          3D

 20 21  0  0  0  0  0  0  0  0999 V2000
   -1.2976    1.5380   -0.6450 C   0  0  0  0  0  0  0  0  0  0  0  0
   -1.7807    0.4498    0.3320 C   0  0  0  0  0  0  0  0  0  0  0  0
   -2.4098    1.1564    1.5559 C   0  0  0  0  0  0  0  0  0  0  0  0
   -2.8986   -0.3505   -0.3576 C   0  0  0  0  0  0  0  0  0  0  0  0
   -0.5766   -0.4335    0.8238 C   0  0  1  0  0  0  0  0  0  0  0  0
   -1.0006   -1.3514    1.8379 O   0  0  0  0  0  0  0  0  0  0  0  0
    0.2663   -1.1671   -0.2356 C   0  0  0  0  0  0  0  0  0  0  0  0
    1.4670   -0.6930   -0.6556 C   0  0  0  0  0  0  0  0  0  0  0  0
    2.1556    0.5175   -0.1910 C   0  0  0  0  0  0  0  0  0  0  0  0
    2.3056    1.6048   -1.0595 C   0  0  0  0  0  0  0  0  0  0  0  0
    2.9791    2.7543   -0.6381 C   0  0  0  0  0  0  0  0  0  0  0  0
    3.5129    2.8124    0.6480 C   0  0  0  0  0  0  0  0  0  0  0  0
    4.3413    4.2281    1.1657 Cl  0  0  0  0  0  0  0  0  0  0  0  0
    3.3832    1.7294    1.5150 C   0  0  0  0  0  0  0  0  0  0  0  0
    2.7102    0.5799    1.0935 C   0  0  0  0  0  0  0  0  0  0  0  0
   -0.2555   -2.3976   -0.7205 N   0  0  0  0  0  0  0  0  0  0  0  0
    0.2598   -3.2020   -1.7323 C   0  0  0  0  0  0  0  0  0  0  0  0
   -0.4639   -4.2794   -1.9183 N   0  0  0  0  0  0  0  0  0  0  0  0
   -1.4413   -4.1380   -0.9935 C   0  0  0  0  0  0  0  0  0  0  0  0
   -1.3733   -3.0375   -0.2479 N   0  0  0  0  0  0  0  0  0  0  0  0
  1  2  1  0
  2  3  1  0
  2  4  1  0
  2  5  1  0
  5  6  1  1
  5  7  1  0
  7  8  2  0
  8  9  1  0
  9 10  2  0
 10 11  1  0
 11 12  2  0
 12 13  1  0
 12 14  1  0
 14 15  2  0
  7 16  1  0
 16 17  1  0
 17 18  2  0
 18 19  1  0
 19 20  2  0
 15  9  1  0
 20 16  1  0
M  END
