
     RDKit          3D

 20 21  0  0  0  0  0  0  0  0999 V2000
   -2.9907   -3.6772    0.3372 C   0  0  0  0  0  0  0  0  0  0  0  0
   -1.8204   -3.2130   -0.5056 C   0  0  0  0  0  0  0  0  0  0  0  0
   -1.9212   -1.8080   -0.6775 O   0  0  0  0  0  0  0  0  0  0  0  0
   -0.5877   -0.9562   -1.0809 P   0  0  2  0  0  5  0  0  0  0  0  0
    0.2212   -1.5965   -2.7458 S   0  0  0  0  0  0  0  0  0  0  0  0
    0.3064   -1.2157    0.2620 O   0  0  0  0  0  0  0  0  0  0  0  0
    1.4570   -0.5170    0.4926 C   0  0  0  0  0  0  0  0  0  0  0  0
    1.4170    0.5895    1.3376 C   0  0  0  0  0  0  0  0  0  0  0  0
    2.5887    1.3031    1.5986 C   0  0  0  0  0  0  0  0  0  0  0  0
    3.8001    0.8958    1.0277 C   0  0  0  0  0  0  0  0  0  0  0  0
    5.0035    1.6279    1.2956 C   0  0  0  0  0  0  0  0  0  0  0  0
    5.9759    2.2226    1.5139 N   0  0  0  0  0  0  0  0  0  0  0  0
    3.8330   -0.2334    0.2011 C   0  0  0  0  0  0  0  0  0  0  0  0
    2.6602   -0.9462   -0.0599 C   0  0  0  0  0  0  0  0  0  0  0  0
   -1.1397    0.7445   -0.9240 C   0  0  0  0  0  0  0  0  0  0  0  0
   -2.2014    1.0827   -0.0690 C   0  0  0  0  0  0  0  0  0  0  0  0
   -2.6113    2.4097    0.0703 C   0  0  0  0  0  0  0  0  0  0  0  0
   -1.9639    3.4172   -0.6409 C   0  0  0  0  0  0  0  0  0  0  0  0
   -0.9075    3.1000   -1.4915 C   0  0  0  0  0  0  0  0  0  0  0  0
   -0.4972    1.7732   -1.6322 C   0  0  0  0  0  0  0  0  0  0  0  0
  1  2  1  0
  2  3  1  0
  4  3  1  1
  4  5  2  0
  4  6  1  0
  6  7  1  0
  7  8  2  0
  8  9  1  0
  9 10  2  0
 10 11  1  0
 11 12  3  0
 10 13  1  0
 13 14  2  0
  4 15  1  0
 15 16  2  0
 16 17  1  0
 17 18  2  0
 18 19  1  0
 19 20  2  0
 14  7  1  0
 20 15  1  0
M  END
