
     RDKit          3D

 27 29  0  0  0  0  0  0  0  0999 V2000
   -2.1612    1.7970   -0.9332 C   0  0  0  0  0  0  0  0  0  0  0  0
   -2.1824    0.4430   -0.2049 C   0  0  1  0  0  0  0  0  0  0  0  0
   -2.5755    0.7068    1.1635 O   0  0  0  0  0  0  0  0  0  0  0  0
   -3.2320   -0.5442   -0.7698 C   0  0  0  0  0  0  0  0  0  0  0  0
   -4.6062   -0.1849   -0.4793 N   0  0  0  0  0  0  0  0  0  0  0  0
   -5.4022   -0.6684    0.5119 C   0  0  0  0  0  0  0  0  0  0  0  0
   -6.5832   -0.0989    0.4403 N   0  0  0  0  0  0  0  0  0  0  0  0
   -6.4611    0.7285   -0.6389 C   0  0  0  0  0  0  0  0  0  0  0  0
   -5.2628    0.7187   -1.2295 N   0  0  0  0  0  0  0  0  0  0  0  0
   -0.7327   -0.1197   -0.1552 C   0  0  0  0  0  0  0  0  0  0  0  0
    0.0231    0.1420    1.0196 C   0  0  0  0  0  0  0  0  0  0  0  0
    1.3382   -0.2969    1.1892 C   0  0  0  0  0  0  0  0  0  0  0  0
    1.9603   -0.9984    0.1704 C   0  0  0  0  0  0  0  0  0  0  0  0
    3.2354   -1.5020    0.2700 O   0  0  0  0  0  0  0  0  0  0  0  0
    4.2080   -0.6692    0.7739 C   0  0  0  0  0  0  0  0  0  0  0  0
    4.4087    0.6285    0.2943 C   0  0  0  0  0  0  0  0  0  0  0  0
    5.4389    1.4102    0.8219 C   0  0  0  0  0  0  0  0  0  0  0  0
    6.2701    0.8852    1.8115 C   0  0  0  0  0  0  0  0  0  0  0  0
    7.5390    1.8493    2.4599 Cl  0  0  0  0  0  0  0  0  0  0  0  0
    6.0854   -0.4176    2.2742 C   0  0  0  0  0  0  0  0  0  0  0  0
    5.0557   -1.1998    1.7476 C   0  0  0  0  0  0  0  0  0  0  0  0
    1.2567   -1.2807   -0.9959 C   0  0  0  0  0  0  0  0  0  0  0  0
   -0.0757   -0.8366   -1.1952 C   0  0  0  0  0  0  0  0  0  0  0  0
   -0.6931   -1.2026   -2.5288 C   0  0  0  0  0  0  0  0  0  0  0  0
   -1.3469   -0.1685   -3.1190 F   0  0  0  0  0  0  0  0  0  0  0  0
    0.2090   -1.6314   -3.4561 F   0  0  0  0  0  0  0  0  0  0  0  0
   -1.6004   -2.2107   -2.4100 F   0  0  0  0  0  0  0  0  0  0  0  0
  2  1  1  6
  2  3  1  0
  2  4  1  0
  4  5  1  0
  5  6  1  0
  6  7  2  0
  7  8  1  0
  8  9  2  0
  2 10  1  0
 10 11  2  0
 11 12  1  0
 12 13  2  0
 13 14  1  0
 14 15  1  0
 15 16  2  0
 16 17  1  0
 17 18  2  0
 18 19  1  0
 18 20  1  0
 20 21  2  0
 13 22  1  0
 22 23  2  0
 23 24  1  0
 24 25  1  0
 24 26  1  0
 24 27  1  0
  9  5  1  0
 23 10  1  0
 21 15  1  0
M  END
