
     RDKit          3D

 24 25  0  0  0  0  0  0  0  0999 V2000
   -2.5722    3.7926    0.9105 C   0  0  0  0  0  0  0  0  0  0  0  0
   -2.4509    2.7422   -0.0508 O   0  0  0  0  0  0  0  0  0  0  0  0
   -1.4944    1.8151    0.2524 C   0  0  0  0  0  0  0  0  0  0  0  0
   -0.7920    1.8557    1.2540 O   0  0  0  0  0  0  0  0  0  0  0  0
   -1.4567    0.7198   -0.8264 C   0  0  1  0  0  0  0  0  0  0  0  0
   -1.2350    1.2921   -2.2281 C   0  0  0  0  0  0  0  0  0  0  0  0
   -0.5495   -0.4209   -0.4953 N   0  0  0  0  0  0  0  0  0  0  0  0
    0.8506   -0.4092   -0.4455 C   0  0  0  0  0  0  0  0  0  0  0  0
    1.5060   -1.4396   -0.2494 O   0  0  0  0  0  0  0  0  0  0  0  0
    1.5843    0.9065   -0.6854 C   0  0  0  0  0  0  0  0  0  0  0  0
    2.8408    1.0644    0.1417 C   0  0  0  0  0  0  0  0  0  0  0  0
    2.7649    1.5398    1.4586 C   0  0  0  0  0  0  0  0  0  0  0  0
    3.9216    1.6857    2.2257 C   0  0  0  0  0  0  0  0  0  0  0  0
    5.1631    1.3526    1.6876 C   0  0  0  0  0  0  0  0  0  0  0  0
    5.2487    0.8683    0.3836 C   0  0  0  0  0  0  0  0  0  0  0  0
    4.0933    0.7219   -0.3859 C   0  0  0  0  0  0  0  0  0  0  0  0
   -1.2102   -1.6957   -0.4095 C   0  0  0  0  0  0  0  0  0  0  0  0
   -2.0286   -1.9851    0.7084 C   0  0  0  0  0  0  0  0  0  0  0  0
   -2.1490   -1.0603    1.8886 C   0  0  0  0  0  0  0  0  0  0  0  0
   -2.7418   -3.1944    0.7464 C   0  0  0  0  0  0  0  0  0  0  0  0
   -2.6209   -4.1250   -0.2796 C   0  0  0  0  0  0  0  0  0  0  0  0
   -1.7861   -3.8594   -1.3600 C   0  0  0  0  0  0  0  0  0  0  0  0
   -1.0817   -2.6461   -1.4502 C   0  0  0  0  0  0  0  0  0  0  0  0
   -0.1826   -2.4629   -2.6433 C   0  0  0  0  0  0  0  0  0  0  0  0
  1  2  1  0
  2  3  1  0
  3  4  2  0
  3  5  1  0
  5  6  1  6
  5  7  1  0
  7  8  1  0
  8  9  2  0
  8 10  1  0
 10 11  1  0
 11 12  2  0
 12 13  1  0
 13 14  2  0
 14 15  1  0
 15 16  2  0
  7 17  1  0
 17 18  2  0
 18 19  1  0
 18 20  1  0
 20 21  2  0
 21 22  1  0
 22 23  2  0
 23 24  1  0
 16 11  1  0
 23 17  1  0
M  END
