
     RDKit          3D

 24 26  0  0  0  0  0  0  0  0999 V2000
   -4.2185    2.1963   -0.1907 C   0  0  0  0  0  0  0  0  0  0  0  0
   -4.7103    0.8502    0.2639 C   0  0  0  0  0  0  0  0  0  0  0  0
   -6.1636    0.8030    0.6479 C   0  0  0  0  0  0  0  0  0  0  0  0
   -3.9322   -0.2472    0.3320 C   0  0  0  0  0  0  0  0  0  0  0  0
   -2.5062   -0.3454   -0.0115 C   0  0  1  0  0  0  0  0  0  0  0  0
   -1.9543   -1.6789   -0.4750 C   0  0  2  0  0  0  0  0  0  0  0  0
   -0.6262   -2.1642   -0.0341 C   0  0  0  0  0  0  0  0  0  0  0  0
    0.0964   -2.8129   -0.7738 O   0  0  0  0  0  0  0  0  0  0  0  0
   -0.3520   -1.8075    1.2423 O   0  0  0  0  0  0  0  0  0  0  0  0
    0.9447   -2.1854    1.7087 C   0  0  0  0  0  0  0  0  0  0  0  0
    1.9585   -1.3308    1.1536 N   0  0  0  0  0  0  0  0  0  0  0  0
    3.1569   -1.7889    0.7069 C   0  0  0  0  0  0  0  0  0  0  0  0
    3.5748   -2.9307    0.6660 O   0  0  0  0  0  0  0  0  0  0  0  0
    3.9364   -0.6092    0.3288 C   0  0  0  0  0  0  0  0  0  0  0  0
    3.2350    0.4725    0.6729 C   0  0  0  0  0  0  0  0  0  0  0  0
    3.6746    1.8726    0.4750 C   0  0  0  0  0  0  0  0  0  0  0  0
    4.8914    1.9297   -0.4659 C   0  0  0  0  0  0  0  0  0  0  0  0
    5.9097    0.8140   -0.1764 C   0  0  0  0  0  0  0  0  0  0  0  0
    5.2878   -0.5911   -0.2770 C   0  0  0  0  0  0  0  0  0  0  0  0
    1.9768    0.0215    1.2697 C   0  0  0  0  0  0  0  0  0  0  0  0
    1.1576    0.7623    1.7793 O   0  0  0  0  0  0  0  0  0  0  0  0
   -2.0692   -0.5199   -1.4577 C   0  0  0  0  0  0  0  0  0  0  0  0
   -3.0894   -0.6562   -2.5620 C   0  0  0  0  0  0  0  0  0  0  0  0
   -0.8269    0.2251   -1.8851 C   0  0  0  0  0  0  0  0  0  0  0  0
  1  2  1  0
  2  3  1  0
  2  4  2  3
  5  4  1  6
  5  6  1  0
  6  7  1  1
  7  8  2  0
  7  9  1  0
  9 10  1  0
 10 11  1  0
 11 12  1  0
 12 13  2  0
 12 14  1  0
 14 15  2  0
 15 16  1  0
 16 17  1  0
 17 18  1  0
 18 19  1  0
 15 20  1  0
 20 21  2  0
  6 22  1  0
 22 23  1  0
 22 24  1  0
 22  5  1  0
 20 11  1  0
 19 14  1  0
M  END
