
     RDKit          3D

 20 21  0  0  0  0  0  0  0  0999 V2000
   -2.8122    1.7312    0.6012 C   0  0  0  0  0  0  0  0  0  0  0  0
   -1.8904    0.6230    0.0253 C   0  0  0  0  0  0  0  0  0  0  0  0
   -2.7489   -0.6377   -0.1590 C   0  0  0  0  0  0  0  0  0  0  0  0
   -1.4407    1.1111   -1.3625 C   0  0  0  0  0  0  0  0  0  0  0  0
   -0.7205    0.3991    1.0461 C   0  0  2  0  0  0  0  0  0  0  0  0
    0.0378    1.6125    1.2006 O   0  0  0  0  0  0  0  0  0  0  0  0
    0.2655   -0.8069    0.9575 C   0  0  2  0  0  0  0  0  0  0  0  0
    1.0200   -1.0426   -0.3711 C   0  0  0  0  0  0  0  0  0  0  0  0
    1.9751    0.0436   -0.8249 C   0  0  0  0  0  0  0  0  0  0  0  0
    1.9683    0.4631   -2.1644 C   0  0  0  0  0  0  0  0  0  0  0  0
    2.8535    1.4471   -2.6121 C   0  0  0  0  0  0  0  0  0  0  0  0
    3.7699    2.0070   -1.7277 C   0  0  0  0  0  0  0  0  0  0  0  0
    4.8601    3.2186   -2.2763 Cl  0  0  0  0  0  0  0  0  0  0  0  0
    3.8141    1.5824   -0.4031 C   0  0  0  0  0  0  0  0  0  0  0  0
    2.9284    0.5972    0.0434 C   0  0  0  0  0  0  0  0  0  0  0  0
   -0.3395   -2.0374    1.4702 N   0  0  0  0  0  0  0  0  0  0  0  0
   -0.5454   -2.3657    2.7779 C   0  0  0  0  0  0  0  0  0  0  0  0
   -1.0680   -3.5670    2.8539 N   0  0  0  0  0  0  0  0  0  0  0  0
   -1.1469   -3.9503    1.5469 C   0  0  0  0  0  0  0  0  0  0  0  0
   -0.7045   -3.0520    0.6631 N   0  0  0  0  0  0  0  0  0  0  0  0
  1  2  1  0
  2  3  1  0
  2  4  1  0
  2  5  1  0
  5  6  1  6
  5  7  1  0
  7  8  1  6
  8  9  1  0
  9 10  2  0
 10 11  1  0
 11 12  2  0
 12 13  1  0
 12 14  1  0
 14 15  2  0
  7 16  1  0
 16 17  1  0
 17 18  2  0
 18 19  1  0
 19 20  2  0
 15  9  1  0
 20 16  1  0
M  END
