
     RDKit          3D

 20 21  0  0  0  0  0  0  0  0999 V2000
   -2.5875   -1.6943   -0.7505 C   0  0  0  0  0  0  0  0  0  0  0  0
   -2.6341   -0.6562    0.3847 C   0  0  0  0  0  0  0  0  0  0  0  0
   -2.2562   -1.3189    1.7236 C   0  0  0  0  0  0  0  0  0  0  0  0
   -4.1124   -0.2019    0.5334 C   0  0  0  0  0  0  0  0  0  0  0  0
   -1.7452    0.5951    0.0610 C   0  0  2  0  0  0  0  0  0  0  0  0
   -2.4161    1.3018   -1.0097 O   0  0  0  0  0  0  0  0  0  0  0  0
   -0.2515    0.4095   -0.3605 C   0  0  2  0  0  0  0  0  0  0  0  0
    0.5876   -0.5932    0.4537 C   0  0  0  0  0  0  0  0  0  0  0  0
    2.0506   -0.6950    0.0644 C   0  0  0  0  0  0  0  0  0  0  0  0
    3.0485   -0.5638    1.0423 C   0  0  0  0  0  0  0  0  0  0  0  0
    4.3986   -0.6658    0.6978 C   0  0  0  0  0  0  0  0  0  0  0  0
    4.7600   -0.9103   -0.6242 C   0  0  0  0  0  0  0  0  0  0  0  0
    6.4223   -1.0387   -1.0474 Cl  0  0  0  0  0  0  0  0  0  0  0  0
    3.7820   -1.0591   -1.6037 C   0  0  0  0  0  0  0  0  0  0  0  0
    2.4314   -0.9576   -1.2602 C   0  0  0  0  0  0  0  0  0  0  0  0
    0.3693    1.7462   -0.3696 N   0  0  0  0  0  0  0  0  0  0  0  0
    0.9724    2.4256    0.6447 C   0  0  0  0  0  0  0  0  0  0  0  0
    1.2828    3.6359    0.2422 N   0  0  0  0  0  0  0  0  0  0  0  0
    0.8177    3.6636   -1.0397 C   0  0  0  0  0  0  0  0  0  0  0  0
    0.2108    2.5456   -1.4477 N   0  0  0  0  0  0  0  0  0  0  0  0
  1  2  1  0
  2  3  1  0
  2  4  1  0
  2  5  1  0
  5  6  1  6
  5  7  1  0
  7  8  1  1
  8  9  1  0
  9 10  2  0
 10 11  1  0
 11 12  2  0
 12 13  1  0
 12 14  1  0
 14 15  2  0
  7 16  1  0
 16 17  1  0
 17 18  2  0
 18 19  1  0
 19 20  2  0
 15  9  1  0
 20 16  1  0
M  END
