
     RDKit          3D

 24 26  0  0  0  0  0  0  0  0999 V2000
   -6.3878   -1.4406   -0.5701 C   0  0  0  0  0  0  0  0  0  0  0  0
   -4.9182   -1.2983   -0.2798 C   0  0  0  0  0  0  0  0  0  0  0  0
   -4.5208   -1.6623    1.1242 C   0  0  0  0  0  0  0  0  0  0  0  0
   -4.0522   -0.8775   -1.2222 C   0  0  0  0  0  0  0  0  0  0  0  0
   -2.6047   -0.6625   -1.0728 C   0  0  2  0  0  0  0  0  0  0  0  0
   -2.1368    0.4979   -0.2170 C   0  0  1  0  0  0  0  0  0  0  0  0
   -1.0020    0.3941    0.7312 C   0  0  0  0  0  0  0  0  0  0  0  0
   -0.5305    1.3901    1.2580 O   0  0  0  0  0  0  0  0  0  0  0  0
   -0.6044   -0.8840    0.9482 O   0  0  0  0  0  0  0  0  0  0  0  0
    0.4117   -1.0505    1.9440 C   0  0  0  0  0  0  0  0  0  0  0  0
    1.6672   -0.4813    1.5387 N   0  0  0  0  0  0  0  0  0  0  0  0
    2.4537    0.2443    2.3773 C   0  0  0  0  0  0  0  0  0  0  0  0
    2.2640    0.5402    3.5430 O   0  0  0  0  0  0  0  0  0  0  0  0
    3.6697    0.5681    1.6301 C   0  0  0  0  0  0  0  0  0  0  0  0
    3.6056   -0.0588    0.4524 C   0  0  0  0  0  0  0  0  0  0  0  0
    4.6541   -0.0136   -0.5935 C   0  0  0  0  0  0  0  0  0  0  0  0
    5.9552    0.5915   -0.0326 C   0  0  0  0  0  0  0  0  0  0  0  0
    5.6944    1.7956    0.8864 C   0  0  0  0  0  0  0  0  0  0  0  0
    4.7841    1.4362    2.0739 C   0  0  0  0  0  0  0  0  0  0  0  0
    2.3488   -0.8115    0.4126 C   0  0  0  0  0  0  0  0  0  0  0  0
    2.0459   -1.5926   -0.4710 O   0  0  0  0  0  0  0  0  0  0  0  0
   -1.9156    0.5321   -1.7207 C   0  0  0  0  0  0  0  0  0  0  0  0
   -2.6994    1.5601   -2.4993 C   0  0  0  0  0  0  0  0  0  0  0  0
   -0.5288    0.3046   -2.2726 C   0  0  0  0  0  0  0  0  0  0  0  0
  1  2  1  0
  2  3  1  0
  2  4  2  3
  5  4  1  6
  5  6  1  0
  6  7  1  1
  7  8  2  0
  7  9  1  0
  9 10  1  0
 10 11  1  0
 11 12  1  0
 12 13  2  0
 12 14  1  0
 14 15  2  0
 15 16  1  0
 16 17  1  0
 17 18  1  0
 18 19  1  0
 15 20  1  0
 20 21  2  0
  6 22  1  0
 22 23  1  0
 22 24  1  0
 22  5  1  0
 20 11  1  0
 19 14  1  0
M  END
