
     RDKit          3D

 20 21  0  0  0  0  0  0  0  0999 V2000
   -2.5789   -1.2165    1.4937 C   0  0  0  0  0  0  0  0  0  0  0  0
   -1.7285   -0.6508    0.3316 C   0  0  0  0  0  0  0  0  0  0  0  0
   -2.7030   -0.1450   -0.7493 C   0  0  0  0  0  0  0  0  0  0  0  0
   -0.9251   -1.8217   -0.2601 C   0  0  0  0  0  0  0  0  0  0  0  0
   -0.8005    0.5012    0.8695 C   0  0  1  0  0  0  0  0  0  0  0  0
    0.0631    0.0116    1.8971 O   0  0  0  0  0  0  0  0  0  0  0  0
    0.0224    1.2794   -0.1693 C   0  0  0  0  0  0  0  0  0  0  0  0
    1.2656    0.9397   -0.6057 C   0  0  0  0  0  0  0  0  0  0  0  0
    2.1400   -0.1831   -0.2465 C   0  0  0  0  0  0  0  0  0  0  0  0
    2.3993   -1.1822   -1.1935 C   0  0  0  0  0  0  0  0  0  0  0  0
    3.2676   -2.2352   -0.8931 C   0  0  0  0  0  0  0  0  0  0  0  0
    3.8950   -2.2802    0.3498 C   0  0  0  0  0  0  0  0  0  0  0  0
    4.9626   -3.5770    0.7221 Cl  0  0  0  0  0  0  0  0  0  0  0  0
    3.6693   -1.2774    1.2895 C   0  0  0  0  0  0  0  0  0  0  0  0
    2.8007   -0.2254    0.9859 C   0  0  0  0  0  0  0  0  0  0  0  0
   -0.5554    2.4784   -0.6952 N   0  0  0  0  0  0  0  0  0  0  0  0
   -1.7489    3.0995   -0.3374 C   0  0  0  0  0  0  0  0  0  0  0  0
   -1.9722    4.1836   -1.0406 N   0  0  0  0  0  0  0  0  0  0  0  0
   -0.8829    4.2405   -1.8405 C   0  0  0  0  0  0  0  0  0  0  0  0
   -0.0019    3.2582   -1.6818 N   0  0  0  0  0  0  0  0  0  0  0  0
  1  2  1  0
  2  3  1  0
  2  4  1  0
  2  5  1  0
  5  6  1  1
  5  7  1  0
  7  8  2  0
  8  9  1  0
  9 10  2  0
 10 11  1  0
 11 12  2  0
 12 13  1  0
 12 14  1  0
 14 15  2  0
  7 16  1  0
 16 17  1  0
 17 18  2  0
 18 19  1  0
 19 20  2  0
 15  9  1  0
 20 16  1  0
M  END
