
     RDKit          3D

 25 27  0  0  0  0  0  0  0  0999 V2000
   -5.0059   -0.4078   -0.1435 C   0  0  0  0  0  0  0  0  0  0  0  0
   -4.0972    0.6557   -0.7868 C   0  0  0  0  0  0  0  0  0  0  0  0
   -4.9090    1.3107   -1.9312 C   0  0  0  0  0  0  0  0  0  0  0  0
   -3.7910    1.7501    0.2512 C   0  0  0  0  0  0  0  0  0  0  0  0
   -2.7808    0.0549   -1.3845 C   0  0  2  0  0  0  0  0  0  0  0  0
   -3.0935   -1.0283   -2.2803 O   0  0  0  0  0  0  0  0  0  0  0  0
   -1.6522   -0.3695   -0.3945 C   0  0  2  0  0  0  0  0  0  0  0  0
   -0.4907   -0.6983   -1.1909 O   0  0  0  0  0  0  0  0  0  0  0  0
    0.7487   -0.4008   -0.7007 C   0  0  0  0  0  0  0  0  0  0  0  0
    1.0750   -0.1664    0.6323 C   0  0  0  0  0  0  0  0  0  0  0  0
    2.3989    0.1193    0.9929 C   0  0  0  0  0  0  0  0  0  0  0  0
    3.4240    0.1672    0.0352 C   0  0  0  0  0  0  0  0  0  0  0  0
    4.8127    0.4660    0.4215 C   0  0  0  0  0  0  0  0  0  0  0  0
    5.8654   -0.3918    0.0611 C   0  0  0  0  0  0  0  0  0  0  0  0
    7.1841   -0.1091    0.4278 C   0  0  0  0  0  0  0  0  0  0  0  0
    7.4729    1.0386    1.1615 C   0  0  0  0  0  0  0  0  0  0  0  0
    6.4447    1.9026    1.5293 C   0  0  0  0  0  0  0  0  0  0  0  0
    5.1264    1.6177    1.1627 C   0  0  0  0  0  0  0  0  0  0  0  0
    3.0814   -0.0879   -1.3002 C   0  0  0  0  0  0  0  0  0  0  0  0
    1.7607   -0.3729   -1.6612 C   0  0  0  0  0  0  0  0  0  0  0  0
   -1.9818   -1.5100    0.4399 N   0  0  0  0  0  0  0  0  0  0  0  0
   -2.1401   -2.8101    0.0668 C   0  0  0  0  0  0  0  0  0  0  0  0
   -2.3877   -3.5474    1.1256 N   0  0  0  0  0  0  0  0  0  0  0  0
   -2.3507   -2.6421    2.1455 C   0  0  0  0  0  0  0  0  0  0  0  0
   -2.1025   -1.3800    1.7838 N   0  0  0  0  0  0  0  0  0  0  0  0
  1  2  1  0
  2  3  1  0
  2  4  1  0
  2  5  1  0
  5  6  1  1
  5  7  1  0
  7  8  1  6
  8  9  1  0
  9 10  2  0
 10 11  1  0
 11 12  2  0
 12 13  1  0
 13 14  2  0
 14 15  1  0
 15 16  2  0
 16 17  1  0
 17 18  2  0
 12 19  1  0
 19 20  2  0
  7 21  1  0
 21 22  1  0
 22 23  2  0
 23 24  1  0
 24 25  2  0
 20  9  1  0
 25 21  1  0
 18 13  1  0
M  END
