
     RDKit          3D

 25 27  0  0  0  0  0  0  0  0999 V2000
   -3.1746    0.9568    0.2489 C   0  0  0  0  0  0  0  0  0  0  0  0
   -3.3397    0.1527   -1.0523 C   0  0  0  0  0  0  0  0  0  0  0  0
   -3.5513    1.1791   -2.1960 C   0  0  0  0  0  0  0  0  0  0  0  0
   -4.6300   -0.6840   -0.9663 C   0  0  0  0  0  0  0  0  0  0  0  0
   -2.0682   -0.7101   -1.3795 C   0  0  2  0  0  0  0  0  0  0  0  0
   -2.2950   -1.5463   -2.5309 O   0  0  0  0  0  0  0  0  0  0  0  0
   -1.4064   -1.5795   -0.2663 C   0  0  1  0  0  0  0  0  0  0  0  0
   -0.8279   -0.7720    0.7678 O   0  0  0  0  0  0  0  0  0  0  0  0
    0.4414   -0.2936    0.6202 C   0  0  0  0  0  0  0  0  0  0  0  0
    1.2667   -0.4392   -0.4922 C   0  0  0  0  0  0  0  0  0  0  0  0
    2.5512    0.1230   -0.4941 C   0  0  0  0  0  0  0  0  0  0  0  0
    3.0384    0.8397    0.6102 C   0  0  0  0  0  0  0  0  0  0  0  0
    4.3895    1.4237    0.6023 C   0  0  0  0  0  0  0  0  0  0  0  0
    4.8037    2.2785   -0.4330 C   0  0  0  0  0  0  0  0  0  0  0  0
    6.0867    2.8329   -0.4406 C   0  0  0  0  0  0  0  0  0  0  0  0
    6.9786    2.5405    0.5880 C   0  0  0  0  0  0  0  0  0  0  0  0
    6.5887    1.6955    1.6237 C   0  0  0  0  0  0  0  0  0  0  0  0
    5.3050    1.1429    1.6304 C   0  0  0  0  0  0  0  0  0  0  0  0
    2.1953    0.9783    1.7211 C   0  0  0  0  0  0  0  0  0  0  0  0
    0.9137    0.4193    1.7233 C   0  0  0  0  0  0  0  0  0  0  0  0
   -2.3203   -2.5537    0.3375 N   0  0  0  0  0  0  0  0  0  0  0  0
   -2.7664   -3.7073   -0.2431 C   0  0  0  0  0  0  0  0  0  0  0  0
   -3.5060   -4.3781    0.6093 N   0  0  0  0  0  0  0  0  0  0  0  0
   -3.4758   -3.5917    1.7245 C   0  0  0  0  0  0  0  0  0  0  0  0
   -2.7657   -2.4672    1.6131 N   0  0  0  0  0  0  0  0  0  0  0  0
  1  2  1  0
  2  3  1  0
  2  4  1  0
  2  5  1  0
  5  6  1  6
  5  7  1  0
  7  8  1  1
  8  9  1  0
  9 10  2  0
 10 11  1  0
 11 12  2  0
 12 13  1  0
 13 14  2  0
 14 15  1  0
 15 16  2  0
 16 17  1  0
 17 18  2  0
 12 19  1  0
 19 20  2  0
  7 21  1  0
 21 22  1  0
 22 23  2  0
 23 24  1  0
 24 25  2  0
 20  9  1  0
 25 21  1  0
 18 13  1  0
M  END
