
     RDKit          3D

 26 28  0  0  0  0  0  0  0  0999 V2000
   -4.5599    2.1002   -1.2838 C   0  0  0  0  0  0  0  0  0  0  0  0
   -4.2664    2.0362    0.1992 C   0  0  0  0  0  0  0  0  0  0  0  0
   -5.0267    3.0716    0.9933 C   0  0  0  0  0  0  0  0  0  0  0  0
   -2.8607    1.6858    0.6722 C   0  0  2  0  0  0  0  0  0  0  0  0
   -1.7415    1.4665   -0.2727 C   0  0  0  0  0  0  0  0  0  0  0  0
   -1.5021    2.2323   -1.1938 O   0  0  0  0  0  0  0  0  0  0  0  0
   -1.0188    0.3668    0.0600 O   0  0  0  0  0  0  0  0  0  0  0  0
    0.0966    0.1377   -0.8076 C   0  0  0  0  0  0  0  0  0  0  0  0
    0.8519   -1.0907   -0.3589 C   0  0  0  0  0  0  0  0  0  0  0  0
    0.1818   -2.2342    0.1029 C   0  0  0  0  0  0  0  0  0  0  0  0
    0.8925   -3.3802    0.4655 C   0  0  0  0  0  0  0  0  0  0  0  0
    2.2827   -3.3972    0.3721 C   0  0  0  0  0  0  0  0  0  0  0  0
    2.9620   -2.2657   -0.0755 C   0  0  0  0  0  0  0  0  0  0  0  0
    4.3310   -2.3654   -0.1856 O   0  0  0  0  0  0  0  0  0  0  0  0
    5.0811   -1.2979    0.2532 C   0  0  0  0  0  0  0  0  0  0  0  0
    4.8884   -0.7056    1.5039 C   0  0  0  0  0  0  0  0  0  0  0  0
    5.7071    0.3519    1.9031 C   0  0  0  0  0  0  0  0  0  0  0  0
    6.7252    0.8029    1.0622 C   0  0  0  0  0  0  0  0  0  0  0  0
    6.9326    0.1921   -0.1752 C   0  0  0  0  0  0  0  0  0  0  0  0
    6.1147   -0.8644   -0.5775 C   0  0  0  0  0  0  0  0  0  0  0  0
    2.2512   -1.1255   -0.4643 C   0  0  0  0  0  0  0  0  0  0  0  0
   -3.9951    0.7025    0.8781 C   0  0  2  0  0  0  0  0  0  0  0  0
   -4.1158   -0.5500    0.1135 C   0  0  0  0  0  0  0  0  0  0  0  0
   -5.2432   -1.2195   -0.1742 C   0  0  0  0  0  0  0  0  0  0  0  0
   -6.7970   -0.6661    0.3340 Cl  0  0  0  0  0  0  0  0  0  0  0  0
   -5.1750   -2.6920   -1.0766 Cl  0  0  0  0  0  0  0  0  0  0  0  0
  1  2  1  0
  2  3  1  0
  2  4  1  0
  4  5  1  6
  5  6  2  0
  5  7  1  0
  7  8  1  0
  8  9  1  0
  9 10  2  0
 10 11  1  0
 11 12  2  0
 12 13  1  0
 13 14  1  0
 14 15  1  0
 15 16  2  0
 16 17  1  0
 17 18  2  0
 18 19  1  0
 19 20  2  0
 13 21  2  0
  4 22  1  0
 22 23  1  6
 23 24  2  3
 24 25  1  0
 24 26  1  0
 22  2  1  0
 21  9  1  0
 20 15  1  0
M  END
