
     RDKit          3D

 11 12  0  0  0  0  0  0  0  0999 V2000
   -2.0710   -0.9239   -0.2588 C   0  0  0  0  0  0  0  0  0  0  0  0
   -2.0432    0.6095   -0.3306 C   0  0  0  0  0  0  0  0  0  0  0  0
   -0.9042    1.2557    0.4611 C   0  0  1  0  0  0  0  0  0  0  0  0
    0.4043    0.5690    0.1344 C   0  0  0  0  0  0  0  0  0  0  0  0
    1.5933    1.2521   -0.1457 C   0  0  0  0  0  0  0  0  0  0  0  0
    2.7687    0.5430   -0.4006 C   0  0  0  0  0  0  0  0  0  0  0  0
    2.7685   -0.8508   -0.3712 C   0  0  0  0  0  0  0  0  0  0  0  0
    1.5913   -1.5441   -0.0944 C   0  0  0  0  0  0  0  0  0  0  0  0
    0.4070   -0.8411    0.1471 C   0  0  0  0  0  0  0  0  0  0  0  0
   -0.8803   -1.5552    0.4690 C   0  0  0  0  0  0  0  0  0  0  0  0
   -0.8850    2.6474    0.1643 O   0  0  0  0  0  0  0  0  0  0  0  0
  1  2  1  0
  2  3  1  0
  3  4  1  0
  4  5  2  0
  5  6  1  0
  6  7  2  0
  7  8  1  0
  8  9  2  0
  9 10  1  0
  3 11  1  6
 10  1  1  0
  9  4  1  0
M  END
