
     RDKit          3D

 11 10  0  0  0  0  0  0  0  0999 V2000
    4.0795   -0.4869   -0.3054 C   0  0  0  0  0  0  0  0  0  0  0  0
    3.1494    0.6730   -0.6311 C   0  0  0  0  0  0  0  0  0  0  0  0
    1.7105    0.5683   -0.0705 C   0  0  1  0  0  0  0  0  0  0  0  0
    1.7098    0.4828    1.4589 C   0  0  0  0  0  0  0  0  0  0  0  0
    1.0531    1.7870   -0.4422 O   0  0  0  0  0  0  0  0  0  0  0  0
    0.9434   -0.6055   -0.7226 C   0  0  0  0  0  0  0  0  0  0  0  0
   -0.4820   -0.8891   -0.2157 C   0  0  0  0  0  0  0  0  0  0  0  0
   -1.4857    0.2408   -0.4609 C   0  0  0  0  0  0  0  0  0  0  0  0
   -2.9494   -0.1852   -0.2328 C   0  0  0  0  0  0  0  0  0  0  0  0
   -3.8895    0.9581   -0.6229 C   0  0  0  0  0  0  0  0  0  0  0  0
   -3.2156   -0.6026    1.2143 C   0  0  0  0  0  0  0  0  0  0  0  0
  1  2  1  0
  2  3  1  0
  3  4  1  1
  3  5  1  0
  3  6  1  0
  6  7  1  0
  7  8  1  0
  8  9  1  0
  9 10  1  0
  9 11  1  0
M  END
