
     RDKit          3D

 26 28  0  0  0  0  0  0  0  0999 V2000
   -3.0991   -2.4450   -0.9784 C   0  0  0  0  0  0  0  0  0  0  0  0
   -3.4951   -1.0424   -0.5826 C   0  0  0  0  0  0  0  0  0  0  0  0
   -3.3069   -0.0395   -1.6986 C   0  0  0  0  0  0  0  0  0  0  0  0
   -4.6306   -0.8945    0.4161 C   0  0  2  0  0  0  0  0  0  0  0  0
   -5.6299    0.1805    0.3123 C   0  0  0  0  0  0  0  0  0  0  0  0
   -6.3627    0.7016    1.3097 C   0  0  0  0  0  0  0  0  0  0  0  0
   -7.5222    1.9411    0.9889 Cl  0  0  0  0  0  0  0  0  0  0  0  0
   -6.2199    0.1509    2.9398 Cl  0  0  0  0  0  0  0  0  0  0  0  0
   -3.2074   -0.6201    0.8560 C   0  0  2  0  0  0  0  0  0  0  0  0
   -2.6431    0.7221    1.1362 C   0  0  0  0  0  0  0  0  0  0  0  0
   -3.2972    1.6489    1.5906 O   0  0  0  0  0  0  0  0  0  0  0  0
   -1.3186    0.7502    0.8409 O   0  0  0  0  0  0  0  0  0  0  0  0
   -0.6954    2.0127    1.0899 C   0  0  0  0  0  0  0  0  0  0  0  0
    0.7988    1.8170    1.0404 C   0  0  0  0  0  0  0  0  0  0  0  0
    1.5892    2.0566    2.1744 C   0  0  0  0  0  0  0  0  0  0  0  0
    2.9744    1.8814    2.1251 C   0  0  0  0  0  0  0  0  0  0  0  0
    3.5842    1.4570    0.9449 C   0  0  0  0  0  0  0  0  0  0  0  0
    2.8026    1.1937   -0.1824 C   0  0  0  0  0  0  0  0  0  0  0  0
    3.3443    0.8025   -1.3867 O   0  0  0  0  0  0  0  0  0  0  0  0
    4.2675   -0.2187   -1.3564 C   0  0  0  0  0  0  0  0  0  0  0  0
    5.4414   -0.0375   -2.0896 C   0  0  0  0  0  0  0  0  0  0  0  0
    6.4035   -1.0481   -2.1222 C   0  0  0  0  0  0  0  0  0  0  0  0
    6.1818   -2.2436   -1.4354 C   0  0  0  0  0  0  0  0  0  0  0  0
    4.9971   -2.4331   -0.7221 C   0  0  0  0  0  0  0  0  0  0  0  0
    4.0333   -1.4235   -0.6869 C   0  0  0  0  0  0  0  0  0  0  0  0
    1.4211    1.3915   -0.1432 C   0  0  0  0  0  0  0  0  0  0  0  0
  1  2  1  0
  2  3  1  0
  2  4  1  0
  4  5  1  6
  5  6  2  3
  6  7  1  0
  6  8  1  0
  4  9  1  0
  9 10  1  6
 10 11  2  0
 10 12  1  0
 12 13  1  0
 13 14  1  0
 14 15  2  0
 15 16  1  0
 16 17  2  0
 17 18  1  0
 18 19  1  0
 19 20  1  0
 20 21  2  0
 21 22  1  0
 22 23  2  0
 23 24  1  0
 24 25  2  0
 18 26  2  0
  9  2  1  0
 26 14  1  0
 25 20  1  0
M  END
