
     RDKit          3D

 10 10  0  0  0  0  0  0  0  0999 V2000
   -2.0963    1.3708    0.4848 C   0  0  0  0  0  0  0  0  0  0  0  0
   -1.6198   -0.0751    0.4586 C   0  0  2  0  0  0  0  0  0  0  0  0
   -0.1490   -0.1955    0.1202 C   0  0  0  0  0  0  0  0  0  0  0  0
    0.3231    0.1109   -1.1670 C   0  0  0  0  0  0  0  0  0  0  0  0
    1.6815    0.0008   -1.4727 C   0  0  0  0  0  0  0  0  0  0  0  0
    2.5787   -0.4154   -0.4925 C   0  0  0  0  0  0  0  0  0  0  0  0
    2.1290   -0.7220    0.7898 C   0  0  0  0  0  0  0  0  0  0  0  0
    0.7698   -0.6119    1.0956 C   0  0  0  0  0  0  0  0  0  0  0  0
    4.2523   -0.5519   -0.8669 Cl  0  0  0  0  0  0  0  0  0  0  0  0
   -2.3996   -0.7992   -0.4908 O   0  0  0  0  0  0  0  0  0  0  0  0
  2  1  1  6
  2  3  1  0
  3  4  2  0
  4  5  1  0
  5  6  2  0
  6  7  1  0
  7  8  2  0
  6  9  1  0
  2 10  1  0
  8  3  1  0
M  END
