
     RDKit          3D

 24 26  0  0  0  0  0  0  0  0999 V2000
   -6.0579    0.9777   -0.1407 C   0  0  0  0  0  0  0  0  0  0  0  0
   -4.9086    0.9614   -1.1092 C   0  0  0  0  0  0  0  0  0  0  0  0
   -5.2886    1.1906   -2.5465 C   0  0  0  0  0  0  0  0  0  0  0  0
   -3.6264    0.7515   -0.7505 C   0  0  0  0  0  0  0  0  0  0  0  0
   -3.1156    0.5144    0.6063 C   0  0  2  0  0  0  0  0  0  0  0  0
   -1.8584   -0.2866    0.8674 C   0  0  2  0  0  0  0  0  0  0  0  0
   -0.9920   -0.8271   -0.2120 C   0  0  0  0  0  0  0  0  0  0  0  0
   -1.3933   -1.4735   -1.1684 O   0  0  0  0  0  0  0  0  0  0  0  0
    0.3073   -0.4930    0.0059 O   0  0  0  0  0  0  0  0  0  0  0  0
    1.1780   -0.9861   -1.0103 C   0  0  0  0  0  0  0  0  0  0  0  0
    2.5124   -0.5614   -0.6893 N   0  0  0  0  0  0  0  0  0  0  0  0
    3.3675   -1.2555    0.1035 C   0  0  0  0  0  0  0  0  0  0  0  0
    3.2072   -2.3327    0.6460 O   0  0  0  0  0  0  0  0  0  0  0  0
    4.5865   -0.4497    0.2017 C   0  0  0  0  0  0  0  0  0  0  0  0
    4.4059    0.6607   -0.5169 C   0  0  0  0  0  0  0  0  0  0  0  0
    5.3979    1.7508   -0.6645 C   0  0  0  0  0  0  0  0  0  0  0  0
    6.5342    1.5941    0.3621 C   0  0  0  0  0  0  0  0  0  0  0  0
    6.9801    0.1316    0.5270 C   0  0  0  0  0  0  0  0  0  0  0  0
    5.8220   -0.7932    0.9431 C   0  0  0  0  0  0  0  0  0  0  0  0
    3.0612    0.6116   -1.0950 C   0  0  0  0  0  0  0  0  0  0  0  0
    2.5811    1.4799   -1.7992 O   0  0  0  0  0  0  0  0  0  0  0  0
   -3.2154   -0.8630    1.2488 C   0  0  0  0  0  0  0  0  0  0  0  0
   -3.7967   -2.0315    0.4862 C   0  0  0  0  0  0  0  0  0  0  0  0
   -3.5441   -0.9125    2.7233 C   0  0  0  0  0  0  0  0  0  0  0  0
  1  2  1  0
  2  3  1  0
  2  4  2  3
  5  4  1  6
  5  6  1  0
  6  7  1  6
  7  8  2  0
  7  9  1  0
  9 10  1  0
 10 11  1  0
 11 12  1  0
 12 13  2  0
 12 14  1  0
 14 15  2  0
 15 16  1  0
 16 17  1  0
 17 18  1  0
 18 19  1  0
 15 20  1  0
 20 21  2  0
  6 22  1  0
 22 23  1  0
 22 24  1  0
 22  5  1  0
 20 11  1  0
 19 14  1  0
M  END
