
     RDKit          3D

 11 11  0  0  0  0  0  0  0  0999 V2000
    3.5224    0.5821   -0.6259 C   0  0  0  0  0  0  0  0  0  0  0  0
    2.7961   -0.7315   -0.3833 C   0  0  0  0  0  0  0  0  0  0  0  0
    1.8677   -0.7006    0.8316 C   0  0  0  0  0  0  0  0  0  0  0  0
    0.7382    0.3452    0.7981 C   0  0  2  0  0  0  0  0  0  0  0  0
    0.0071    0.2461    2.0182 O   0  0  0  0  0  0  0  0  0  0  0  0
   -0.1979    0.2788   -0.4383 C   0  0  0  0  0  0  0  0  0  0  0  0
   -0.9322   -1.0602   -0.6398 C   0  0  0  0  0  0  0  0  0  0  0  0
   -2.1825   -1.2410    0.2171 C   0  0  0  0  0  0  0  0  0  0  0  0
   -3.1355   -0.0600    0.0876 C   0  0  0  0  0  0  0  0  0  0  0  0
   -2.4403    1.2612    0.3878 C   0  0  0  0  0  0  0  0  0  0  0  0
   -1.1972    1.4543   -0.4764 C   0  0  0  0  0  0  0  0  0  0  0  0
  1  2  1  0
  2  3  1  0
  3  4  1  0
  4  5  1  1
  4  6  1  0
  6  7  1  0
  7  8  1  0
  8  9  1  0
  9 10  1  0
 10 11  1  0
 11  6  1  0
M  END
