
     RDKit          3D

 25 27  0  0  0  0  0  0  0  0999 V2000
   -2.7890   -2.3817    0.4885 C   0  0  0  0  0  0  0  0  0  0  0  0
   -3.4962   -1.1295    1.0380 C   0  0  0  0  0  0  0  0  0  0  0  0
   -2.8612   -0.7426    2.3871 C   0  0  0  0  0  0  0  0  0  0  0  0
   -4.9716   -1.5038    1.3242 C   0  0  0  0  0  0  0  0  0  0  0  0
   -3.4534    0.0475    0.0022 C   0  0  2  0  0  0  0  0  0  0  0  0
   -4.3103   -0.3215   -1.1030 O   0  0  0  0  0  0  0  0  0  0  0  0
   -2.0506    0.4578   -0.5465 C   0  0  2  0  0  0  0  0  0  0  0  0
   -1.1066    0.6609    0.5080 O   0  0  0  0  0  0  0  0  0  0  0  0
    0.2212    0.4597    0.2455 C   0  0  0  0  0  0  0  0  0  0  0  0
    1.0342    0.4121    1.3790 C   0  0  0  0  0  0  0  0  0  0  0  0
    2.4145    0.2218    1.2614 C   0  0  0  0  0  0  0  0  0  0  0  0
    3.0177    0.0814    0.0039 C   0  0  0  0  0  0  0  0  0  0  0  0
    4.4701   -0.1192   -0.1258 C   0  0  0  0  0  0  0  0  0  0  0  0
    4.9890   -1.2021   -0.8553 C   0  0  0  0  0  0  0  0  0  0  0  0
    6.3679   -1.3936   -0.9789 C   0  0  0  0  0  0  0  0  0  0  0  0
    7.2523   -0.5036   -0.3751 C   0  0  0  0  0  0  0  0  0  0  0  0
    6.7593    0.5767    0.3520 C   0  0  0  0  0  0  0  0  0  0  0  0
    5.3802    0.7662    0.4756 C   0  0  0  0  0  0  0  0  0  0  0  0
    2.1904    0.1441   -1.1282 C   0  0  0  0  0  0  0  0  0  0  0  0
    0.8067    0.3351   -1.0127 C   0  0  0  0  0  0  0  0  0  0  0  0
   -2.1925    1.7074   -1.3053 N   0  0  0  0  0  0  0  0  0  0  0  0
   -1.8644    2.9753   -0.9338 C   0  0  0  0  0  0  0  0  0  0  0  0
   -2.2056    3.8150   -1.8840 N   0  0  0  0  0  0  0  0  0  0  0  0
   -2.7584    3.0047   -2.8316 C   0  0  0  0  0  0  0  0  0  0  0  0
   -2.7939    1.7056   -2.5196 N   0  0  0  0  0  0  0  0  0  0  0  0
  1  2  1  0
  2  3  1  0
  2  4  1  0
  2  5  1  0
  5  6  1  6
  5  7  1  0
  7  8  1  1
  8  9  1  0
  9 10  2  0
 10 11  1  0
 11 12  2  0
 12 13  1  0
 13 14  2  0
 14 15  1  0
 15 16  2  0
 16 17  1  0
 17 18  2  0
 12 19  1  0
 19 20  2  0
  7 21  1  0
 21 22  1  0
 22 23  2  0
 23 24  1  0
 24 25  2  0
 20  9  1  0
 25 21  1  0
 18 13  1  0
M  END
