
     RDKit          3D

 26 28  0  0  0  0  0  0  0  0999 V2000
    4.5461    1.8611    1.6064 C   0  0  0  0  0  0  0  0  0  0  0  0
    4.5130    0.8352    0.4972 C   0  0  0  0  0  0  0  0  0  0  0  0
    5.6378    1.0041   -0.4994 C   0  0  0  0  0  0  0  0  0  0  0  0
    3.9866   -0.5461    0.8574 C   0  0  2  0  0  0  0  0  0  0  0  0
    4.6121   -1.7575    0.3015 C   0  0  0  0  0  0  0  0  0  0  0  0
    5.7263   -2.3675    0.7349 C   0  0  0  0  0  0  0  0  0  0  0  0
    6.2988   -3.7966   -0.0484 Cl  0  0  0  0  0  0  0  0  0  0  0  0
    6.6389   -1.7701    2.0722 Cl  0  0  0  0  0  0  0  0  0  0  0  0
    3.1767    0.3546   -0.0539 C   0  0  1  0  0  0  0  0  0  0  0  0
    1.8958    0.9461    0.4066 C   0  0  0  0  0  0  0  0  0  0  0  0
    1.4390    0.7506    1.5229 O   0  0  0  0  0  0  0  0  0  0  0  0
    1.3467    1.7169   -0.5658 O   0  0  0  0  0  0  0  0  0  0  0  0
    0.0832    2.3053   -0.2395 C   0  0  0  0  0  0  0  0  0  0  0  0
   -1.0257    1.4395   -0.7777 C   0  0  0  0  0  0  0  0  0  0  0  0
   -1.4191    1.5348   -2.1208 C   0  0  0  0  0  0  0  0  0  0  0  0
   -2.4238    0.7070   -2.6261 C   0  0  0  0  0  0  0  0  0  0  0  0
   -3.0438   -0.2270   -1.7969 C   0  0  0  0  0  0  0  0  0  0  0  0
   -2.6667   -0.3191   -0.4555 C   0  0  0  0  0  0  0  0  0  0  0  0
   -3.2055   -1.2507    0.4017 O   0  0  0  0  0  0  0  0  0  0  0  0
   -4.5779   -1.3453    0.4570 C   0  0  0  0  0  0  0  0  0  0  0  0
   -5.4156   -0.2286    0.5305 C   0  0  0  0  0  0  0  0  0  0  0  0
   -6.7971   -0.4038    0.6255 C   0  0  0  0  0  0  0  0  0  0  0  0
   -7.3377   -1.6902    0.6607 C   0  0  0  0  0  0  0  0  0  0  0  0
   -6.4982   -2.8042    0.6085 C   0  0  0  0  0  0  0  0  0  0  0  0
   -5.1164   -2.6318    0.5150 C   0  0  0  0  0  0  0  0  0  0  0  0
   -1.6498    0.4933    0.0484 C   0  0  0  0  0  0  0  0  0  0  0  0
  1  2  1  0
  2  3  1  0
  2  4  1  0
  4  5  1  6
  5  6  2  3
  6  7  1  0
  6  8  1  0
  4  9  1  0
  9 10  1  1
 10 11  2  0
 10 12  1  0
 12 13  1  0
 13 14  1  0
 14 15  2  0
 15 16  1  0
 16 17  2  0
 17 18  1  0
 18 19  1  0
 19 20  1  0
 20 21  2  0
 21 22  1  0
 22 23  2  0
 23 24  1  0
 24 25  2  0
 18 26  2  0
  9  2  1  0
 26 14  1  0
 25 20  1  0
M  END
