
     RDKit          3D

 18 18  0  0  0  0  0  0  0  0999 V2000
   -4.6533    2.6052   -1.3426 C   0  0  0  0  0  0  0  0  0  0  0  0
   -3.9858    1.3264   -0.8812 C   0  0  0  0  0  0  0  0  0  0  0  0
   -2.5796    1.4754   -0.9974 O   0  0  0  0  0  0  0  0  0  0  0  0
   -1.6414    1.0995    0.2710 P   0  0  0  0  0  5  0  0  0  0  0  0
   -1.9161    2.1975    1.8459 S   0  0  0  0  0  0  0  0  0  0  0  0
   -1.9459   -0.4828    0.4438 O   0  0  0  0  0  0  0  0  0  0  0  0
   -1.6871   -1.3671   -0.6344 C   0  0  0  0  0  0  0  0  0  0  0  0
   -2.5738   -2.5854   -0.4793 C   0  0  0  0  0  0  0  0  0  0  0  0
   -0.1784    1.1369   -0.4139 O   0  0  0  0  0  0  0  0  0  0  0  0
    1.0001    0.7692    0.1708 C   0  0  0  0  0  0  0  0  0  0  0  0
    2.1554    1.1102   -0.5346 C   0  0  0  0  0  0  0  0  0  0  0  0
    3.4152    0.7710   -0.0350 C   0  0  0  0  0  0  0  0  0  0  0  0
    3.5263    0.0738    1.1717 C   0  0  0  0  0  0  0  0  0  0  0  0
    5.1603   -0.3571    1.8150 S   0  0  0  0  0  4  0  0  0  0  0  0
    5.5406   -1.6644    0.6205 C   0  0  0  0  0  0  0  0  0  0  0  0
    4.9213   -1.0234    3.1385 O   0  0  0  0  0  0  0  0  0  0  0  0
    2.3656   -0.2618    1.8759 C   0  0  0  0  0  0  0  0  0  0  0  0
    1.1044    0.0810    1.3761 C   0  0  0  0  0  0  0  0  0  0  0  0
  1  2  1  0
  2  3  1  0
  3  4  1  0
  4  5  2  0
  4  6  1  0
  6  7  1  0
  7  8  1  0
  4  9  1  0
  9 10  1  0
 10 11  2  0
 11 12  1  0
 12 13  2  0
 13 14  1  0
 14 15  1  6
 14 16  2  0
 13 17  1  0
 17 18  2  0
 18 10  1  0
M  END
