
     RDKit          3D

 11 12  0  0  0  0  0  0  0  0999 V2000
   -1.0567    0.4206   -1.5838 C   0  0  0  0  0  0  0  0  0  0  0  0
   -0.9717   -0.1842   -0.1771 C   0  0  0  0  0  0  0  0  0  0  0  0
   -0.5309    0.7835    1.0023 C   0  0  1  0  0  0  0  0  0  0  0  0
    0.0808   -0.4837    1.6795 C   0  0  0  0  0  0  0  0  0  0  0  0
    0.3505   -0.9793    0.2145 C   0  0  2  0  0  0  0  0  0  0  0  0
    1.6044   -0.3484   -0.3088 C   0  0  0  0  0  0  0  0  0  0  0  0
    2.5265   -1.0563   -0.9711 C   0  0  0  0  0  0  0  0  0  0  0  0
    1.7669    1.1247   -0.0499 C   0  0  0  0  0  0  0  0  0  0  0  0
    2.7667    1.7467   -0.3924 O   0  0  0  0  0  0  0  0  0  0  0  0
    0.5899    1.7857    0.6604 C   0  0  0  0  0  0  0  0  0  0  0  0
   -2.2800   -0.9577    0.0790 C   0  0  0  0  0  0  0  0  0  0  0  0
  1  2  1  0
  2  3  1  0
  3  4  1  1
  5  4  1  1
  5  6  1  0
  6  7  2  0
  6  8  1  0
  8  9  2  0
  8 10  1  0
  2 11  1  0
  5  2  1  0
 10  3  1  0
M  END
