
     RDKit          3D

 19 20  0  0  0  0  0  0  0  0999 V2000
    1.5720   -2.4933    0.9926 O   0  0  0  0  0  0  0  0  0  0  0  0
    1.7187   -1.4546    0.3640 C   0  0  0  0  0  0  0  0  0  0  0  0
    3.0509   -1.0199   -0.2225 C   0  0  1  0  0  0  0  0  0  0  0  0
    3.3478   -1.9985   -1.6865 Cl  0  0  0  0  0  0  0  0  0  0  0  0
    2.8484    0.4481   -0.5825 C   0  0  2  0  0  0  0  0  0  0  0  0
    3.3866    1.4116    0.4833 C   0  0  0  0  0  0  0  0  0  0  0  0
    2.6934    1.2026    2.1046 Cl  0  0  0  0  0  0  0  0  0  0  0  0
    1.3433    0.5547   -0.7961 C   0  0  0  0  0  0  0  0  0  0  0  0
    0.7547   -0.4939    0.0063 N   0  0  0  0  0  0  0  0  0  0  0  0
   -0.6396   -0.5530    0.2869 C   0  0  0  0  0  0  0  0  0  0  0  0
   -1.1824   -1.5161    1.1454 C   0  0  0  0  0  0  0  0  0  0  0  0
   -2.5548   -1.5629    1.4148 C   0  0  0  0  0  0  0  0  0  0  0  0
   -3.4166   -0.6410    0.8305 C   0  0  0  0  0  0  0  0  0  0  0  0
   -2.9102    0.3416   -0.0255 C   0  0  0  0  0  0  0  0  0  0  0  0
   -3.8322    1.3340   -0.6881 C   0  0  0  0  0  0  0  0  0  0  0  0
   -4.2462    0.9160   -1.9157 F   0  0  0  0  0  0  0  0  0  0  0  0
   -4.9645    1.5813    0.0270 F   0  0  0  0  0  0  0  0  0  0  0  0
   -3.2466    2.5489   -0.8872 F   0  0  0  0  0  0  0  0  0  0  0  0
   -1.5267    0.3694   -0.2936 C   0  0  0  0  0  0  0  0  0  0  0  0
  1  2  2  0
  2  3  1  0
  3  4  1  6
  3  5  1  0
  5  6  1  1
  6  7  1  0
  5  8  1  0
  8  9  1  0
  9 10  1  0
 10 11  2  0
 11 12  1  0
 12 13  2  0
 13 14  1  0
 14 15  1  0
 15 16  1  0
 15 17  1  0
 15 18  1  0
 14 19  2  0
  9  2  1  0
 19 10  1  0
M  END
