
     RDKit          3D

 24 26  0  0  0  0  0  0  0  0999 V2000
   -4.3501   -0.9453   -3.0074 C   0  0  0  0  0  0  0  0  0  0  0  0
   -3.9621   -0.3558   -1.6786 C   0  0  0  0  0  0  0  0  0  0  0  0
   -4.7800    0.8318   -1.2498 C   0  0  0  0  0  0  0  0  0  0  0  0
   -2.9542   -0.8747   -0.9497 C   0  0  0  0  0  0  0  0  0  0  0  0
   -2.4633   -0.4048    0.3538 C   0  0  2  0  0  0  0  0  0  0  0  0
   -1.9157   -1.4244    1.3329 C   0  0  1  0  0  0  0  0  0  0  0  0
   -0.6848   -1.1494    2.1066 C   0  0  0  0  0  0  0  0  0  0  0  0
   -0.6125   -1.3533    3.3094 O   0  0  0  0  0  0  0  0  0  0  0  0
    0.3193   -0.7019    1.3128 O   0  0  0  0  0  0  0  0  0  0  0  0
    1.5112   -0.4339    2.0467 C   0  0  0  0  0  0  0  0  0  0  0  0
    2.5178   -0.0090    1.1134 N   0  0  0  0  0  0  0  0  0  0  0  0
    3.3542   -0.8510    0.4530 C   0  0  0  0  0  0  0  0  0  0  0  0
    3.4362   -2.0626    0.5205 O   0  0  0  0  0  0  0  0  0  0  0  0
    4.1878   -0.0113   -0.4098 C   0  0  0  0  0  0  0  0  0  0  0  0
    3.8116    1.2584   -0.2379 C   0  0  0  0  0  0  0  0  0  0  0  0
    4.3877    2.4214   -0.9509 C   0  0  0  0  0  0  0  0  0  0  0  0
    5.2542    1.9585   -2.1363 C   0  0  0  0  0  0  0  0  0  0  0  0
    6.1151    0.7326   -1.7888 C   0  0  0  0  0  0  0  0  0  0  0  0
    5.2679   -0.4634   -1.3174 C   0  0  0  0  0  0  0  0  0  0  0  0
    2.7237    1.2809    0.7433 C   0  0  0  0  0  0  0  0  0  0  0  0
    2.1550    2.2871    1.1230 O   0  0  0  0  0  0  0  0  0  0  0  0
   -3.2213   -0.7033    1.6363 C   0  0  0  0  0  0  0  0  0  0  0  0
   -4.4792   -1.5395    1.6189 C   0  0  0  0  0  0  0  0  0  0  0  0
   -3.2482    0.3867    2.6818 C   0  0  0  0  0  0  0  0  0  0  0  0
  1  2  1  0
  2  3  1  0
  2  4  2  3
  5  4  1  6
  5  6  1  0
  6  7  1  1
  7  8  2  0
  7  9  1  0
  9 10  1  0
 10 11  1  0
 11 12  1  0
 12 13  2  0
 12 14  1  0
 14 15  2  0
 15 16  1  0
 16 17  1  0
 17 18  1  0
 18 19  1  0
 15 20  1  0
 20 21  2  0
  6 22  1  0
 22 23  1  0
 22 24  1  0
 22  5  1  0
 20 11  1  0
 19 14  1  0
M  END
