
     RDKit          3D

 19 20  0  0  0  0  0  0  0  0999 V2000
   -3.7715    2.8008   -0.1480 O   0  0  0  0  0  0  0  0  0  0  0  0
   -2.9314    2.0081   -0.5662 C   0  0  0  0  0  0  0  0  0  0  0  0
   -2.9075    0.5231   -0.1932 C   0  0  0  0  0  0  0  0  0  0  0  0
   -1.5044   -0.0630   -0.4858 C   0  0  2  0  0  0  0  0  0  0  0  0
   -1.3496   -1.5722   -0.2859 C   0  0  0  0  0  0  0  0  0  0  0  0
   -0.0600   -1.7242    0.4654 C   0  0  0  0  0  0  0  0  0  0  0  0
    0.4604   -2.7996    0.7203 O   0  0  0  0  0  0  0  0  0  0  0  0
    0.3870   -0.4902    0.8283 N   0  0  0  0  0  0  0  0  0  0  0  0
    1.6005   -0.2722    1.5872 C   0  0  0  0  0  0  0  0  0  0  0  0
    2.7921   -0.0874    0.6770 C   0  0  0  0  0  0  0  0  0  0  0  0
    3.1542    1.1913    0.2291 C   0  0  0  0  0  0  0  0  0  0  0  0
    4.2396    1.3579   -0.6322 C   0  0  0  0  0  0  0  0  0  0  0  0
    4.9682    0.2495   -1.0597 C   0  0  0  0  0  0  0  0  0  0  0  0
    4.6104   -1.0271   -0.6301 C   0  0  0  0  0  0  0  0  0  0  0  0
    3.5255   -1.1965    0.2312 C   0  0  0  0  0  0  0  0  0  0  0  0
   -0.4102    0.5188    0.3807 C   0  0  0  0  0  0  0  0  0  0  0  0
   -0.2664    1.7135    0.5919 O   0  0  0  0  0  0  0  0  0  0  0  0
   -3.3224    0.3759    1.2806 C   0  0  0  0  0  0  0  0  0  0  0  0
   -3.9571   -0.1558   -1.0910 C   0  0  0  0  0  0  0  0  0  0  0  0
  1  2  2  0
  2  3  1  0
  4  3  1  1
  4  5  1  0
  5  6  1  0
  6  7  2  0
  6  8  1  0
  8  9  1  0
  9 10  1  0
 10 11  2  0
 11 12  1  0
 12 13  2  0
 13 14  1  0
 14 15  2  0
  8 16  1  0
 16 17  2  0
  3 18  1  0
  3 19  1  0
 16  4  1  0
 15 10  1  0
M  END
