
     RDKit          3D

 12 13  0  0  0  0  0  0  0  0999 V2000
   -0.9037    2.5551   -0.4197 O   0  0  0  0  0  0  0  0  0  0  0  0
   -0.9117    1.3466    0.3382 C   0  0  1  0  0  0  0  0  0  0  0  0
   -2.1668    0.5646   -0.0542 C   0  0  0  0  0  0  0  0  0  0  0  0
   -2.1123   -0.8542    0.4908 C   0  0  0  0  0  0  0  0  0  0  0  0
   -0.9337   -1.6068   -0.1222 C   0  0  0  0  0  0  0  0  0  0  0  0
    0.3589   -0.8279   -0.0655 C   0  0  0  0  0  0  0  0  0  0  0  0
    1.5706   -1.5130   -0.2497 C   0  0  0  0  0  0  0  0  0  0  0  0
    2.7868   -0.8305   -0.2173 C   0  0  0  0  0  0  0  0  0  0  0  0
    2.7987    0.5435   -0.0019 C   0  0  0  0  0  0  0  0  0  0  0  0
    4.4454    1.4700    0.0567 Br  0  0  0  0  0  0  0  0  0  0  0  0
    1.6050    1.2416    0.1711 C   0  0  0  0  0  0  0  0  0  0  0  0
    0.3708    0.5688    0.1212 C   0  0  0  0  0  0  0  0  0  0  0  0
  2  1  1  6
  2  3  1  0
  3  4  1  0
  4  5  1  0
  5  6  1  0
  6  7  2  0
  7  8  1  0
  8  9  2  0
  9 10  1  0
  9 11  1  0
 11 12  2  0
 12  2  1  0
 12  6  1  0
M  END
