
     RDKit          3D

 19 20  0  0  0  0  0  0  0  0999 V2000
   -4.6372    1.1430   -0.3201 C   0  0  0  0  0  0  0  0  0  0  0  0
   -3.1369    1.2094   -0.1840 C   0  0  0  0  0  0  0  0  0  0  0  0
   -2.6234    1.4712    0.9053 O   0  0  0  0  0  0  0  0  0  0  0  0
   -2.2878    1.0281   -1.4489 C   0  0  2  0  0  0  0  0  0  0  0  0
   -2.7990   -0.1388   -2.2990 C   0  0  0  0  0  0  0  0  0  0  0  0
   -0.7860    0.8674   -1.1392 C   0  0  1  0  0  0  0  0  0  0  0  0
   -0.1134    2.1395   -0.6200 C   0  0  0  0  0  0  0  0  0  0  0  0
    0.6646    1.6906    0.5824 C   0  0  0  0  0  0  0  0  0  0  0  0
    1.4157    2.4154    1.2193 O   0  0  0  0  0  0  0  0  0  0  0  0
    0.3897    0.3784    0.8252 N   0  0  0  0  0  0  0  0  0  0  0  0
    0.9426   -0.3578    1.9393 C   0  0  0  0  0  0  0  0  0  0  0  0
    2.2294   -1.0521    1.5568 C   0  0  0  0  0  0  0  0  0  0  0  0
    3.4582   -0.3865    1.6730 C   0  0  0  0  0  0  0  0  0  0  0  0
    4.6438   -1.0196    1.2972 C   0  0  0  0  0  0  0  0  0  0  0  0
    4.6125   -2.3193    0.7951 C   0  0  0  0  0  0  0  0  0  0  0  0
    3.3957   -2.9861    0.6637 C   0  0  0  0  0  0  0  0  0  0  0  0
    2.2087   -2.3551    1.0387 C   0  0  0  0  0  0  0  0  0  0  0  0
   -0.4835   -0.1604   -0.0719 C   0  0  0  0  0  0  0  0  0  0  0  0
   -0.9353   -1.2970   -0.0634 O   0  0  0  0  0  0  0  0  0  0  0  0
  1  2  1  0
  2  3  2  0
  2  4  1  0
  4  5  1  1
  4  6  1  0
  6  7  1  1
  7  8  1  0
  8  9  2  0
  8 10  1  0
 10 11  1  0
 11 12  1  0
 12 13  2  0
 13 14  1  0
 14 15  2  0
 15 16  1  0
 16 17  2  0
 10 18  1  0
 18 19  2  0
 18  6  1  0
 17 12  1  0
M  END
