
     RDKit          3D

 18 18  0  0  0  0  0  0  0  0999 V2000
    4.7921   -0.0888   -0.6999 C   0  0  0  0  0  0  0  0  0  0  0  0
    3.4764    0.6021   -0.4386 C   0  0  0  0  0  0  0  0  0  0  0  0
    3.4442    1.7860   -0.1022 O   0  0  0  0  0  0  0  0  0  0  0  0
    2.2098   -0.2225   -0.5913 C   0  0  0  0  0  0  0  0  0  0  0  0
    2.2033   -1.3918    0.3860 C   0  0  0  0  0  0  0  0  0  0  0  0
    1.6866   -1.2017    1.7859 C   0  0  0  0  0  0  0  0  0  0  0  0
    2.7243   -2.4634    0.0634 O   0  0  0  0  0  0  0  0  0  0  0  0
    0.9441    0.6473   -0.6811 C   0  0  2  0  0  0  0  0  0  0  0  0
    0.6434    1.6213    0.4432 C   0  0  0  0  0  0  0  0  0  0  0  0
   -0.8323    1.4716    0.6713 C   0  0  0  0  0  0  0  0  0  0  0  0
   -1.4141    2.0610    1.5698 O   0  0  0  0  0  0  0  0  0  0  0  0
   -1.3495    0.5460   -0.2002 N   0  0  0  0  0  0  0  0  0  0  0  0
   -2.7479    0.0328   -0.1122 C   0  0  0  0  0  0  0  0  0  0  0  0
   -3.7606    1.1737    0.1434 C   0  0  0  0  0  0  0  0  0  0  0  0
   -3.1894   -0.6360   -1.4355 C   0  0  0  0  0  0  0  0  0  0  0  0
   -2.8568   -0.9955    1.0274 C   0  0  0  0  0  0  0  0  0  0  0  0
   -0.3204   -0.1625   -0.7648 C   0  0  0  0  0  0  0  0  0  0  0  0
   -0.3601   -1.2818   -1.2503 O   0  0  0  0  0  0  0  0  0  0  0  0
  1  2  1  0
  2  3  2  0
  2  4  1  0
  4  5  1  0
  5  6  1  0
  5  7  2  0
  8  4  1  1
  8  9  1  0
  9 10  1  0
 10 11  2  0
 10 12  1  0
 12 13  1  0
 13 14  1  0
 13 15  1  0
 13 16  1  0
 12 17  1  0
 17 18  2  0
 17  8  1  0
M  END
