
     RDKit          3D

  9  9  0  0  0  0  0  0  0  0999 V2000
    0.3267    0.4516   -2.4547 C   0  0  0  0  0  0  0  0  0  0  0  0
   -0.2766    0.9967   -1.1630 C   0  0  1  0  0  0  0  0  0  0  0  0
   -0.1466    0.1218    0.0679 C   0  0  0  0  0  0  0  0  0  0  0  0
    0.4097   -1.1660    0.0468 C   0  0  0  0  0  0  0  0  0  0  0  0
    0.4795   -1.9373    1.2115 C   0  0  0  0  0  0  0  0  0  0  0  0
   -0.0070   -1.4357    2.4158 C   0  0  0  0  0  0  0  0  0  0  0  0
   -0.5630   -0.1610    2.4588 C   0  0  0  0  0  0  0  0  0  0  0  0
   -0.6327    0.6084    1.2955 C   0  0  0  0  0  0  0  0  0  0  0  0
    0.3366    2.2568   -0.8835 O   0  0  0  0  0  0  0  0  0  0  0  0
  2  1  1  6
  2  3  1  0
  3  4  2  0
  4  5  1  0
  5  6  2  0
  6  7  1  0
  7  8  2  0
  2  9  1  0
  8  3  1  0
M  END
