
     RDKit          3D

 26 27  0  0  0  0  0  0  0  0999 V2000
   -3.4998    3.8447    1.5534 N   0  0  0  0  0  0  0  0  0  0  0  0
   -2.9195    2.9398    1.1120 C   0  0  0  0  0  0  0  0  0  0  0  0
   -2.1677    1.8369    0.5810 C   0  0  0  0  0  0  0  0  0  0  0  0
   -0.8443    1.8182    0.7808 N   0  0  0  0  0  0  0  0  0  0  0  0
   -0.4144    0.6893    0.1680 N   0  0  0  0  0  0  0  0  0  0  0  0
    0.9546    0.3429    0.2331 C   0  0  0  0  0  0  0  0  0  0  0  0
    1.9276    1.2616   -0.1938 C   0  0  0  0  0  0  0  0  0  0  0  0
    1.5500    2.7681   -0.9592 Cl  0  0  0  0  0  0  0  0  0  0  0  0
    3.2878    0.9377   -0.1031 C   0  0  0  0  0  0  0  0  0  0  0  0
    3.7012   -0.2938    0.4215 C   0  0  0  0  0  0  0  0  0  0  0  0
    5.1669   -0.6488    0.4962 C   0  0  0  0  0  0  0  0  0  0  0  0
    5.4631   -1.4449    1.5590 F   0  0  0  0  0  0  0  0  0  0  0  0
    5.9756    0.4393    0.6034 F   0  0  0  0  0  0  0  0  0  0  0  0
    5.5826   -1.3237   -0.6089 F   0  0  0  0  0  0  0  0  0  0  0  0
    2.7240   -1.2058    0.8437 C   0  0  0  0  0  0  0  0  0  0  0  0
    1.3607   -0.8920    0.7610 C   0  0  0  0  0  0  0  0  0  0  0  0
    0.2690   -2.0543    1.4331 Cl  0  0  0  0  0  0  0  0  0  0  0  0
   -1.4628   -0.0024   -0.4526 C   0  0  0  0  0  0  0  0  0  0  0  0
   -1.2886   -1.1153   -1.2163 N   0  0  0  0  0  0  0  0  0  0  0  0
   -2.5985    0.7262   -0.1637 C   0  0  0  0  0  0  0  0  0  0  0  0
   -4.2613    0.3794   -0.7124 S   0  0  0  0  0  4  0  0  0  0  0  0
   -5.1588    1.3624   -0.0182 O   0  0  0  0  0  0  0  0  0  0  0  0
   -4.4437   -1.2645    0.0249 C   0  0  0  0  0  0  0  0  0  0  0  0
   -3.7179   -2.1953   -0.6562 F   0  0  0  0  0  0  0  0  0  0  0  0
   -5.7311   -1.6939   -0.0067 F   0  0  0  0  0  0  0  0  0  0  0  0
   -4.0365   -1.3137    1.3182 F   0  0  0  0  0  0  0  0  0  0  0  0
  1  2  3  0
  2  3  1  0
  3  4  2  0
  4  5  1  0
  5  6  1  0
  6  7  2  0
  7  8  1  0
  7  9  1  0
  9 10  2  0
 10 11  1  0
 11 12  1  0
 11 13  1  0
 11 14  1  0
 10 15  1  0
 15 16  2  0
 16 17  1  0
  5 18  1  0
 18 19  1  0
 18 20  2  0
 20 21  1  0
 21 22  2  0
 21 23  1  1
 23 24  1  0
 23 25  1  0
 23 26  1  0
 20  3  1  0
 16  6  1  0
M  END
