
     RDKit          3D

 11 12  0  0  0  0  0  0  0  0999 V2000
    0.3308    2.0305    0.8217 C   0  0  0  0  0  0  0  0  0  0  0  0
   -0.4339    1.8963   -0.3811 O   0  0  0  0  0  0  0  0  0  0  0  0
    0.0448    0.6732    0.2096 C   0  0  0  0  0  0  0  0  0  0  0  0
    1.0327   -0.0830   -0.6600 C   0  0  1  0  0  0  0  0  0  0  0  0
    2.4906    0.1213   -0.3401 C   0  0  0  0  0  0  0  0  0  0  0  0
    3.3931    0.5827   -1.2156 C   0  0  0  0  0  0  0  0  0  0  0  0
    0.6349   -1.5562   -0.4391 C   0  0  0  0  0  0  0  0  0  0  0  0
   -0.8683   -1.4930   -0.1855 C   0  0  0  0  0  0  0  0  0  0  0  0
   -1.0259   -0.2682    0.7395 C   0  0  2  0  0  0  0  0  0  0  0  0
   -2.4300    0.2710    0.8768 C   0  0  0  0  0  0  0  0  0  0  0  0
   -3.5631   -0.2814    0.4222 C   0  0  0  0  0  0  0  0  0  0  0  0
  1  2  1  0
  2  3  1  0
  3  4  1  0
  4  5  1  1
  5  6  2  0
  4  7  1  0
  7  8  1  0
  8  9  1  0
  9 10  1  6
 10 11  2  0
  3  1  1  0
  9  3  1  0
M  END
