
     RDKit          3D

 10 10  0  0  0  0  0  0  0  0999 V2000
    3.6462   -0.4006   -0.0501 C   0  0  0  0  0  0  0  0  0  0  0  0
    2.1671   -0.1546   -0.1234 C   0  0  0  0  0  0  0  0  0  0  0  0
    1.6575    1.0520   -0.4264 C   0  0  0  0  0  0  0  0  0  0  0  0
    0.1823    1.3385   -0.4811 C   0  0  0  0  0  0  0  0  0  0  0  0
   -0.6722    0.2712    0.2423 C   0  0  2  0  0  0  0  0  0  0  0  0
   -0.1929   -1.1261   -0.1872 C   0  0  0  0  0  0  0  0  0  0  0  0
    1.2840   -1.3433    0.1641 C   0  0  0  0  0  0  0  0  0  0  0  0
   -2.1865    0.4168    0.0837 C   0  0  0  0  0  0  0  0  0  0  0  0
   -2.7973    1.1319   -0.8770 C   0  0  0  0  0  0  0  0  0  0  0  0
   -3.0150   -0.2851    1.1325 C   0  0  0  0  0  0  0  0  0  0  0  0
  1  2  1  0
  2  3  2  0
  3  4  1  0
  4  5  1  0
  5  6  1  0
  6  7  1  0
  5  8  1  6
  8  9  2  0
  8 10  1  0
  7  2  1  0
M  END
