
     RDKit          3D

 24 26  0  0  0  0  0  0  0  0999 V2000
    5.6018   -0.4980    0.5659 C   0  0  0  0  0  0  0  0  0  0  0  0
    4.9853    0.5974   -0.2586 C   0  0  0  0  0  0  0  0  0  0  0  0
    5.6317    0.8187   -1.5986 C   0  0  0  0  0  0  0  0  0  0  0  0
    3.9380    1.3450    0.1435 C   0  0  0  0  0  0  0  0  0  0  0  0
    3.2206    1.2534    1.4232 C   0  0  1  0  0  0  0  0  0  0  0  0
    1.7533    1.6035    1.5473 C   0  0  1  0  0  0  0  0  0  0  0  0
    0.9218    2.0791    0.4188 C   0  0  0  0  0  0  0  0  0  0  0  0
    1.2273    3.0429   -0.2677 O   0  0  0  0  0  0  0  0  0  0  0  0
   -0.2205    1.3572    0.3081 O   0  0  0  0  0  0  0  0  0  0  0  0
   -1.0423    1.7867   -0.7730 C   0  0  0  0  0  0  0  0  0  0  0  0
   -2.1998    0.9368   -0.7992 N   0  0  0  0  0  0  0  0  0  0  0  0
   -2.2468   -0.2732   -1.4128 C   0  0  0  0  0  0  0  0  0  0  0  0
   -1.3946   -0.8314   -2.0791 O   0  0  0  0  0  0  0  0  0  0  0  0
   -3.5638   -0.8380   -1.1103 C   0  0  0  0  0  0  0  0  0  0  0  0
   -4.2191    0.0311   -0.3377 C   0  0  0  0  0  0  0  0  0  0  0  0
   -5.5706   -0.1827    0.2282 C   0  0  0  0  0  0  0  0  0  0  0  0
   -5.9865   -1.6581    0.0911 C   0  0  0  0  0  0  0  0  0  0  0  0
   -5.6007   -2.2532   -1.2737 C   0  0  0  0  0  0  0  0  0  0  0  0
   -4.0917   -2.1483   -1.5566 C   0  0  0  0  0  0  0  0  0  0  0  0
   -3.3442    1.1831   -0.1126 C   0  0  0  0  0  0  0  0  0  0  0  0
   -3.6344    2.1447    0.5744 O   0  0  0  0  0  0  0  0  0  0  0  0
    2.2017    0.1517    1.6668 C   0  0  0  0  0  0  0  0  0  0  0  0
    1.8725   -0.8325    0.5656 C   0  0  0  0  0  0  0  0  0  0  0  0
    2.1637   -0.4682    3.0416 C   0  0  0  0  0  0  0  0  0  0  0  0
  1  2  1  0
  2  3  1  0
  2  4  2  3
  5  4  1  6
  5  6  1  0
  6  7  1  6
  7  8  2  0
  7  9  1  0
  9 10  1  0
 10 11  1  0
 11 12  1  0
 12 13  2  0
 12 14  1  0
 14 15  2  0
 15 16  1  0
 16 17  1  0
 17 18  1  0
 18 19  1  0
 15 20  1  0
 20 21  2  0
  6 22  1  0
 22 23  1  0
 22 24  1  0
 22  5  1  0
 20 11  1  0
 19 14  1  0
M  END
