
     RDKit          3D

 24 26  0  0  0  0  0  0  0  0999 V2000
   -6.5160    1.0473    1.6067 C   0  0  0  0  0  0  0  0  0  0  0  0
   -5.2459    0.2467    1.5033 C   0  0  0  0  0  0  0  0  0  0  0  0
   -4.5755   -0.0420    2.8190 C   0  0  0  0  0  0  0  0  0  0  0  0
   -4.7801   -0.1750    0.3090 C   0  0  0  0  0  0  0  0  0  0  0  0
   -3.5620   -0.9575    0.0473 C   0  0  2  0  0  0  0  0  0  0  0  0
   -2.2068   -0.3155    0.2771 C   0  0  1  0  0  0  0  0  0  0  0  0
   -1.1108   -1.0843    0.9086 C   0  0  0  0  0  0  0  0  0  0  0  0
   -1.3050   -2.0409    1.6434 O   0  0  0  0  0  0  0  0  0  0  0  0
    0.0989   -0.5855    0.5558 O   0  0  0  0  0  0  0  0  0  0  0  0
    1.1776   -1.3194    1.1286 C   0  0  0  0  0  0  0  0  0  0  0  0
    2.4033   -0.6951    0.7129 N   0  0  0  0  0  0  0  0  0  0  0  0
    3.0324    0.2921    1.4008 C   0  0  0  0  0  0  0  0  0  0  0  0
    2.7258    0.8040    2.4624 O   0  0  0  0  0  0  0  0  0  0  0  0
    4.2136    0.6561    0.6135 C   0  0  0  0  0  0  0  0  0  0  0  0
    4.2249   -0.0993   -0.4881 C   0  0  0  0  0  0  0  0  0  0  0  0
    5.2632   -0.0485   -1.5457 C   0  0  0  0  0  0  0  0  0  0  0  0
    6.4892    0.7518   -1.0658 C   0  0  0  0  0  0  0  0  0  0  0  0
    6.0961    2.0145   -0.2789 C   0  0  0  0  0  0  0  0  0  0  0  0
    5.2187    1.6940    0.9466 C   0  0  0  0  0  0  0  0  0  0  0  0
    3.0589   -0.9862   -0.4401 C   0  0  0  0  0  0  0  0  0  0  0  0
    2.7828   -1.8121   -1.2907 O   0  0  0  0  0  0  0  0  0  0  0  0
   -2.6676   -0.6289   -1.1402 C   0  0  0  0  0  0  0  0  0  0  0  0
   -2.0602   -1.7981   -1.8828 C   0  0  0  0  0  0  0  0  0  0  0  0
   -2.9642    0.5519   -2.0333 C   0  0  0  0  0  0  0  0  0  0  0  0
  1  2  1  0
  2  3  1  0
  2  4  2  3
  5  4  1  6
  5  6  1  0
  6  7  1  1
  7  8  2  0
  7  9  1  0
  9 10  1  0
 10 11  1  0
 11 12  1  0
 12 13  2  0
 12 14  1  0
 14 15  2  0
 15 16  1  0
 16 17  1  0
 17 18  1  0
 18 19  1  0
 15 20  1  0
 20 21  2  0
  6 22  1  0
 22 23  1  0
 22 24  1  0
 22  5  1  0
 20 11  1  0
 19 14  1  0
M  END
