
     RDKit          3D

 10  9  0  0  0  0  0  0  0  0999 V2000
   -1.1980    2.0682   -0.3890 C   0  0  0  0  0  0  0  0  0  0  0  0
   -1.2682    0.7407   -0.8691 O   0  0  0  0  0  0  0  0  0  0  0  0
   -0.4791   -0.4135   -0.0642 P   0  0  2  0  0  5  0  0  0  0  0  0
   -0.6787   -0.3667    1.4204 O   0  0  0  0  0  0  0  0  0  0  0  0
    1.1245   -0.3474   -0.5620 N   0  0  0  0  0  0  0  0  0  0  0  0
    1.9856    0.6219   -0.1511 C   0  0  0  0  0  0  0  0  0  0  0  0
    3.4182    0.3882   -0.5509 C   0  0  0  0  0  0  0  0  0  0  0  0
    1.6532    1.6177    0.4799 O   0  0  0  0  0  0  0  0  0  0  0  0
   -1.1909   -2.2483   -0.7730 S   0  0  0  0  0  0  0  0  0  0  0  0
   -2.8868   -2.2782   -0.1640 C   0  0  0  0  0  0  0  0  0  0  0  0
  1  2  1  0
  2  3  1  0
  3  4  2  0
  3  5  1  1
  5  6  1  0
  6  7  1  0
  6  8  2  0
  3  9  1  0
  9 10  1  0
M  END
