
     RDKit          3D

  9  9  0  0  0  0  0  0  0  0999 V2000
   -2.2474    0.9766   -0.6211 C   0  0  0  0  0  0  0  0  0  0  0  0
   -1.6380   -0.1990    0.1308 C   0  0  2  0  0  0  0  0  0  0  0  0
   -0.1266   -0.1424    0.1763 C   0  0  0  0  0  0  0  0  0  0  0  0
    0.6383   -0.3030   -0.9901 C   0  0  0  0  0  0  0  0  0  0  0  0
    2.0320   -0.2511   -0.9402 C   0  0  0  0  0  0  0  0  0  0  0  0
    2.6783   -0.0378    0.2754 C   0  0  0  0  0  0  0  0  0  0  0  0
    1.9320    0.1241    1.4409 C   0  0  0  0  0  0  0  0  0  0  0  0
    0.5374    0.0724    1.3928 C   0  0  0  0  0  0  0  0  0  0  0  0
   -2.0642   -1.4118   -0.4884 O   0  0  0  0  0  0  0  0  0  0  0  0
  2  1  1  6
  2  3  1  0
  3  4  2  0
  4  5  1  0
  5  6  2  0
  6  7  1  0
  7  8  2  0
  2  9  1  0
  8  3  1  0
M  END
