
     RDKit          3D

 18 20  0  0  0  0  0  0  0  0999 V2000
   -4.3563    0.7316    0.6833 C   0  0  0  0  0  0  0  0  0  0  0  0
   -2.8557    0.7028    0.4189 C   0  0  0  0  0  0  0  0  0  0  0  0
   -2.0387    0.6012    1.7120 C   0  0  0  0  0  0  0  0  0  0  0  0
   -0.7534   -0.1486    1.3547 C   0  0  0  0  0  0  0  0  0  0  0  0
   -0.8032   -0.4258   -0.1625 C   0  0  2  0  0  0  0  0  0  0  0  0
   -0.0015    0.6290   -0.9571 C   0  0  0  0  0  0  0  0  0  0  0  0
    1.4701    0.5364   -0.7078 C   0  0  0  0  0  0  0  0  0  0  0  0
    2.1955    1.3556    0.0251 N   0  0  0  0  0  0  0  0  0  0  0  0
    3.4800    0.8744   -0.0418 C   0  0  0  0  0  0  0  0  0  0  0  0
    4.6525    1.3579    0.5559 C   0  0  0  0  0  0  0  0  0  0  0  0
    5.8540    0.6750    0.3272 C   0  0  0  0  0  0  0  0  0  0  0  0
    5.8865   -0.4652   -0.4801 C   0  0  0  0  0  0  0  0  0  0  0  0
    4.7260   -0.9623   -1.0854 C   0  0  0  0  0  0  0  0  0  0  0  0
    3.5432   -0.2618   -0.8398 C   0  0  0  0  0  0  0  0  0  0  0  0
    2.2512   -0.4525   -1.2556 N   0  0  0  0  0  0  0  0  0  0  0  0
   -2.3345   -0.4562   -0.4667 C   0  0  0  0  0  0  0  0  0  0  0  0
   -2.9158   -1.8275   -0.0516 C   0  0  0  0  0  0  0  0  0  0  0  0
   -2.6836   -0.2330   -1.9450 C   0  0  0  0  0  0  0  0  0  0  0  0
  1  2  1  0
  2  3  1  0
  3  4  1  0
  4  5  1  0
  5  6  1  6
  6  7  1  0
  7  8  2  0
  8  9  1  0
  9 10  2  0
 10 11  1  0
 11 12  2  0
 12 13  1  0
 13 14  2  0
 14 15  1  0
  5 16  1  0
 16 17  1  0
 16 18  1  0
 16  2  1  0
 15  7  1  0
 14  9  1  0
M  END
