
     RDKit          3D

 16 17  0  0  0  0  0  0  0  0999 V2000
    3.7603    0.6169    1.6956 C   0  0  0  0  0  0  0  0  0  0  0  0
    3.5161    0.9089    0.2228 C   0  0  0  0  0  0  0  0  0  0  0  0
    2.3419    0.2220   -0.2800 N   0  0  0  0  0  0  0  0  0  0  0  0
    2.3485   -1.0890   -0.6616 C   0  0  0  0  0  0  0  0  0  0  0  0
    3.3194   -1.8213   -0.7692 O   0  0  0  0  0  0  0  0  0  0  0  0
    0.9242   -1.5397   -0.8267 C   0  0  0  0  0  0  0  0  0  0  0  0
    0.1440   -0.2305   -0.8995 C   0  0  1  0  0  0  0  0  0  0  0  0
   -1.2698   -0.2354   -0.2899 C   0  0  2  0  0  0  0  0  0  0  0  0
   -2.0834   -1.4748   -0.6610 C   0  0  0  0  0  0  0  0  0  0  0  0
   -3.6906   -1.5717    0.2077 S   0  0  0  0  0  0  0  0  0  0  0  0
   -3.8666    0.1494    0.7794 C   0  0  0  0  0  0  0  0  0  0  0  0
   -3.4823    1.1491   -0.2926 C   0  0  0  0  0  0  0  0  0  0  0  0
   -2.0683    0.9651   -0.7995 C   0  0  0  0  0  0  0  0  0  0  0  0
   -1.6122    1.7491   -1.6339 O   0  0  0  0  0  0  0  0  0  0  0  0
    1.0694    0.7016   -0.1460 C   0  0  0  0  0  0  0  0  0  0  0  0
    0.7257    1.6889    0.4844 O   0  0  0  0  0  0  0  0  0  0  0  0
  1  2  1  0
  2  3  1  0
  3  4  1  0
  4  5  2  0
  4  6  1  0
  7  6  1  1
  7  8  1  0
  8  9  1  6
  9 10  1  0
 10 11  1  0
 11 12  1  0
 12 13  1  0
 13 14  2  0
  7 15  1  0
 15 16  2  0
 15  3  1  0
 13  8  1  0
M  END
