
     RDKit          3D

 20 21  0  0  0  0  0  0  0  0999 V2000
   -0.5767   -0.8272    1.8115 C   0  0  0  0  0  0  0  0  0  0  0  0
   -1.6678   -0.3499    0.8380 C   0  0  0  0  0  0  0  0  0  0  0  0
   -2.7696   -1.4355    0.8116 C   0  0  0  0  0  0  0  0  0  0  0  0
   -2.2959    0.9331    1.4138 C   0  0  0  0  0  0  0  0  0  0  0  0
   -1.1149   -0.1298   -0.6183 C   0  0  2  0  0  0  0  0  0  0  0  0
   -0.6115   -1.3630   -1.1427 O   0  0  0  0  0  0  0  0  0  0  0  0
   -0.0674    0.9840   -0.8171 C   0  0  0  0  0  0  0  0  0  0  0  0
    1.2800    0.8309   -0.7213 C   0  0  0  0  0  0  0  0  0  0  0  0
    2.0808   -0.3626   -0.4141 C   0  0  0  0  0  0  0  0  0  0  0  0
    2.7505   -0.4477    0.8132 C   0  0  0  0  0  0  0  0  0  0  0  0
    3.5619   -1.5484    1.1020 C   0  0  0  0  0  0  0  0  0  0  0  0
    3.7205   -2.5579    0.1551 C   0  0  0  0  0  0  0  0  0  0  0  0
    4.7188   -3.9133    0.5101 Cl  0  0  0  0  0  0  0  0  0  0  0  0
    3.0823   -2.4720   -1.0797 C   0  0  0  0  0  0  0  0  0  0  0  0
    2.2719   -1.3701   -1.3662 C   0  0  0  0  0  0  0  0  0  0  0  0
   -0.6353    2.2437   -1.1795 N   0  0  0  0  0  0  0  0  0  0  0  0
    0.0302    3.4470   -1.4040 C   0  0  0  0  0  0  0  0  0  0  0  0
   -0.7958    4.4146   -1.7224 N   0  0  0  0  0  0  0  0  0  0  0  0
   -1.9954    3.7909   -1.6975 C   0  0  0  0  0  0  0  0  0  0  0  0
   -1.9659    2.4999   -1.3804 N   0  0  0  0  0  0  0  0  0  0  0  0
  1  2  1  0
  2  3  1  0
  2  4  1  0
  2  5  1  0
  5  6  1  1
  5  7  1  0
  7  8  2  0
  8  9  1  0
  9 10  2  0
 10 11  1  0
 11 12  2  0
 12 13  1  0
 12 14  1  0
 14 15  2  0
  7 16  1  0
 16 17  1  0
 17 18  2  0
 18 19  1  0
 19 20  2  0
 15  9  1  0
 20 16  1  0
M  END
