
     RDKit          3D

  7  6  0  0  0  0  0  0  0  0999 V2000
    1.7552   -1.1350    0.1133 C   0  0  0  0  0  0  0  0  0  0  0  0
    0.8231   -0.7303   -0.8682 O   0  0  0  0  0  0  0  0  0  0  0  0
    0.0008    0.6413   -0.6607 P   0  0  2  0  0  5  0  0  0  0  0  0
   -0.9913    0.8465   -1.7652 O   0  0  0  0  0  0  0  0  0  0  0  0
    1.1318    1.8293   -0.6351 N   0  0  0  0  0  0  0  0  0  0  0  0
   -0.9792    0.6519    1.1728 S   0  0  0  0  0  0  0  0  0  0  0  0
   -2.2969   -0.5529    0.9346 C   0  0  0  0  0  0  0  0  0  0  0  0
  1  2  1  0
  2  3  1  0
  3  4  2  0
  3  5  1  1
  3  6  1  0
  6  7  1  0
M  END
