
     RDKit          3D

 19 20  0  0  0  0  0  0  0  0999 V2000
    4.9009    1.5390   -0.1372 C   0  0  0  0  0  0  0  0  0  0  0  0
    3.9974    0.6787    0.7242 C   0  0  0  0  0  0  0  0  0  0  0  0
    2.8951    0.2543   -0.0715 O   0  0  0  0  0  0  0  0  0  0  0  0
    2.0040   -0.6060    0.6514 C   0  0  1  0  0  0  0  0  0  0  0  0
    1.3761    0.1063    1.7507 O   0  0  0  0  0  0  0  0  0  0  0  0
    0.1659    0.4980    1.2421 C   0  0  0  0  0  0  0  0  0  0  0  0
   -0.6462    1.4465    1.8293 C   0  0  0  0  0  0  0  0  0  0  0  0
   -1.8586    1.7439    1.2046 C   0  0  0  0  0  0  0  0  0  0  0  0
   -2.2381    1.0675    0.0328 C   0  0  0  0  0  0  0  0  0  0  0  0
   -3.4361    1.4253   -0.5293 O   0  0  0  0  0  0  0  0  0  0  0  0
   -4.6328    0.3283   -0.7432 S   0  0  0  0  0  6  0  0  0  0  0  0
   -4.9779   -0.0427    0.9649 C   0  0  0  0  0  0  0  0  0  0  0  0
   -5.7868    1.0246   -1.2782 O   0  0  0  0  0  0  0  0  0  0  0  0
   -4.1257   -0.8689   -1.3836 O   0  0  0  0  0  0  0  0  0  0  0  0
   -1.3957    0.1221   -0.5554 C   0  0  0  0  0  0  0  0  0  0  0  0
   -0.1924   -0.1598    0.0735 C   0  0  0  0  0  0  0  0  0  0  0  0
    0.8730   -1.1527   -0.2738 C   0  0  0  0  0  0  0  0  0  0  0  0
    0.4295   -2.5521    0.1826 C   0  0  0  0  0  0  0  0  0  0  0  0
    1.2385   -1.1736   -1.7589 C   0  0  0  0  0  0  0  0  0  0  0  0
  1  2  1  0
  2  3  1  0
  4  3  1  6
  4  5  1  0
  5  6  1  0
  6  7  2  0
  7  8  1  0
  8  9  2  0
  9 10  1  0
 10 11  1  0
 11 12  1  0
 11 13  2  0
 11 14  2  0
  9 15  1  0
 15 16  2  0
 16 17  1  0
 17 18  1  0
 17 19  1  0
 17  4  1  0
 16  6  1  0
M  END
