
     RDKit          3D

 13 14  0  0  0  0  0  0  0  0999 V2000
    3.0702    0.3772   -1.0037 C   0  0  0  0  0  0  0  0  0  0  0  0
    2.3303   -0.6208   -0.3282 O   0  0  0  0  0  0  0  0  0  0  0  0
    1.8125   -0.3017    1.1748 P   0  0  2  0  0  5  0  0  0  0  0  0
    3.1811    0.0478    2.4967 S   0  0  0  0  0  0  0  0  0  0  0  0
    0.8748   -1.5791    1.4829 O   0  0  0  0  0  0  0  0  0  0  0  0
   -0.1304   -1.8715    0.5341 C   0  0  0  0  0  0  0  0  0  0  0  0
   -0.9665   -0.6698    0.2014 C   0  0  0  0  0  0  0  0  0  0  0  0
   -2.2361   -0.8413   -0.3703 C   0  0  0  0  0  0  0  0  0  0  0  0
   -3.0206    0.2647   -0.7043 C   0  0  0  0  0  0  0  0  0  0  0  0
   -2.5428    1.5535   -0.4764 C   0  0  0  0  0  0  0  0  0  0  0  0
   -1.2785    1.7362    0.0799 C   0  0  0  0  0  0  0  0  0  0  0  0
   -0.4966    0.6286    0.4052 C   0  0  0  0  0  0  0  0  0  0  0  0
    0.7320    0.8775    0.9450 O   0  0  0  0  0  0  0  0  0  0  0  0
  1  2  1  0
  3  2  1  6
  3  4  2  0
  3  5  1  0
  5  6  1  0
  6  7  1  0
  7  8  2  0
  8  9  1  0
  9 10  2  0
 10 11  1  0
 11 12  2  0
 12 13  1  0
 13  3  1  0
 12  7  1  0
M  END
