
     RDKit          3D

 11 11  0  0  0  0  0  0  0  0999 V2000
    2.8040    1.3466   -0.3482 C   0  0  0  0  0  0  0  0  0  0  0  0
    2.6611   -0.1683   -0.3088 C   0  0  0  0  0  0  0  0  0  0  0  0
    1.6976   -0.7063   -1.3698 C   0  0  0  0  0  0  0  0  0  0  0  0
    0.2851   -1.0453   -0.8682 C   0  0  0  0  0  0  0  0  0  0  0  0
   -0.5298    0.1563   -0.3894 C   0  0  1  0  0  0  0  0  0  0  0  0
   -2.0283   -0.0890   -0.2275 C   0  0  2  0  0  0  0  0  0  0  0  0
   -2.3996    1.0253    0.7372 C   0  0  0  0  0  0  0  0  0  0  0  0
   -1.1530    1.1566    1.5615 C   0  0  0  0  0  0  0  0  0  0  0  0
   -1.0701    1.7218    2.6388 O   0  0  0  0  0  0  0  0  0  0  0  0
   -0.1036    0.5694    0.9144 O   0  0  0  0  0  0  0  0  0  0  0  0
   -2.3931   -1.4560    0.3591 C   0  0  0  0  0  0  0  0  0  0  0  0
  1  2  1  0
  2  3  1  0
  3  4  1  0
  5  4  1  1
  5  6  1  0
  6  7  1  0
  7  8  1  0
  8  9  2  0
  8 10  1  0
  6 11  1  1
 10  5  1  0
M  END
