
     RDKit          3D

 16 15  0  0  0  0  0  0  0  0999 V2000
   -3.6669    2.4723   -0.1658 C   0  0  0  0  0  0  0  0  0  0  0  0
   -3.5000    0.9802   -0.0368 C   0  0  0  0  0  0  0  0  0  0  0  0
   -2.8691    0.2779   -0.9981 C   0  0  0  0  0  0  0  0  0  0  0  0
   -2.6073   -1.2041   -1.0527 C   0  0  0  0  0  0  0  0  0  0  0  0
   -1.1130   -1.5540   -0.9660 C   0  0  0  0  0  0  0  0  0  0  0  0
   -0.4875   -1.3117    0.3949 C   0  0  0  0  0  0  0  0  0  0  0  0
    0.3950   -0.3287    0.6652 C   0  0  0  0  0  0  0  0  0  0  0  0
    0.8886    0.7354   -0.2722 C   0  0  0  0  0  0  0  0  0  0  0  0
    2.1282    0.3550   -1.0916 C   0  0  0  0  0  0  0  0  0  0  0  0
    3.4729    0.1997   -0.3429 C   0  0  2  0  0  0  0  0  0  0  0  0
    3.5536   -1.0950    0.4762 C   0  0  0  0  0  0  0  0  0  0  0  0
    3.8310    1.4561    0.4145 C   0  0  0  0  0  0  0  0  0  0  0  0
    4.0244    1.6000    1.7334 C   0  0  0  0  0  0  0  0  0  0  0  0
    4.4890    0.0931   -1.3566 O   0  0  0  0  0  0  0  0  0  0  0  0
   -0.8822   -2.2921    1.4701 C   0  0  0  0  0  0  0  0  0  0  0  0
   -4.0734    0.4062    1.2286 C   0  0  0  0  0  0  0  0  0  0  0  0
  1  2  1  0
  2  3  2  3
  3  4  1  0
  4  5  1  0
  5  6  1  0
  6  7  2  0
  7  8  1  0
  8  9  1  0
  9 10  1  0
 10 11  1  1
 10 12  1  0
 12 13  2  0
 10 14  1  0
  6 15  1  0
  2 16  1  0
M  END
