
     RDKit          3D

 22 23  0  0  0  0  0  0  0  0999 V2000
   -6.7228   -0.2525   -0.2330 C   0  0  0  0  0  0  0  0  0  0  0  0
   -5.3628   -0.0768   -0.6335 O   0  0  0  0  0  0  0  0  0  0  0  0
   -4.5256    0.2849    0.3874 C   0  0  0  0  0  0  0  0  0  0  0  0
   -4.8830    0.4421    1.5476 O   0  0  0  0  0  0  0  0  0  0  0  0
   -3.0953    0.4324   -0.1428 C   0  0  1  0  0  0  0  0  0  0  0  0
   -3.0355    1.6121   -1.1077 C   0  0  0  0  0  0  0  0  0  0  0  0
   -2.2259    0.6870    0.9630 O   0  0  0  0  0  0  0  0  0  0  0  0
   -0.9544    0.1899    0.9311 C   0  0  0  0  0  0  0  0  0  0  0  0
   -0.2802   -0.2814   -0.1962 C   0  0  0  0  0  0  0  0  0  0  0  0
    1.0332   -0.7518   -0.0849 C   0  0  0  0  0  0  0  0  0  0  0  0
    1.6799   -0.7316    1.1524 C   0  0  0  0  0  0  0  0  0  0  0  0
    2.9588   -1.2069    1.3312 O   0  0  0  0  0  0  0  0  0  0  0  0
    3.9141   -0.7693    0.4399 C   0  0  0  0  0  0  0  0  0  0  0  0
    4.1446    0.5991    0.2523 C   0  0  0  0  0  0  0  0  0  0  0  0
    5.1455    1.0216   -0.6242 C   0  0  0  0  0  0  0  0  0  0  0  0
    5.9213    0.0777   -1.2972 C   0  0  0  0  0  0  0  0  0  0  0  0
    7.1532    0.6036   -2.3771 Cl  0  0  0  0  0  0  0  0  0  0  0  0
    5.7122   -1.2862   -1.1002 C   0  0  0  0  0  0  0  0  0  0  0  0
    4.7114   -1.7091   -0.2240 C   0  0  0  0  0  0  0  0  0  0  0  0
    4.4752   -3.4041   -0.0002 Cl  0  0  0  0  0  0  0  0  0  0  0  0
    1.0078   -0.2764    2.2836 C   0  0  0  0  0  0  0  0  0  0  0  0
   -0.3011    0.1943    2.1673 C   0  0  0  0  0  0  0  0  0  0  0  0
  1  2  1  0
  2  3  1  0
  3  4  2  0
  3  5  1  0
  5  6  1  6
  5  7  1  0
  7  8  1  0
  8  9  2  0
  9 10  1  0
 10 11  2  0
 11 12  1  0
 12 13  1  0
 13 14  2  0
 14 15  1  0
 15 16  2  0
 16 17  1  0
 16 18  1  0
 18 19  2  0
 19 20  1  0
 11 21  1  0
 21 22  2  0
 22  8  1  0
 19 13  1  0
M  END
