
     RDKit          3D

 16 15  0  0  0  0  0  0  0  0999 V2000
    5.1032    1.2637   -0.9961 C   0  0  0  0  0  0  0  0  0  0  0  0
    5.1024    0.2423    0.1076 C   0  0  0  0  0  0  0  0  0  0  0  0
    4.0001   -0.2583    0.6992 C   0  0  0  0  0  0  0  0  0  0  0  0
    2.5635    0.1111    0.4349 C   0  0  0  0  0  0  0  0  0  0  0  0
    1.8514   -0.9675   -0.3940 C   0  0  0  0  0  0  0  0  0  0  0  0
    0.3790   -0.7517   -0.7257 C   0  0  0  0  0  0  0  0  0  0  0  0
   -0.3420    0.3059   -0.2997 C   0  0  0  0  0  0  0  0  0  0  0  0
   -1.7838    0.6170   -0.6089 C   0  0  0  0  0  0  0  0  0  0  0  0
   -2.6975    0.2201    0.5537 C   0  0  0  0  0  0  0  0  0  0  0  0
   -4.2022    0.4794    0.3320 C   0  0  1  0  0  0  0  0  0  0  0  0
   -4.5036    1.9634    0.0947 C   0  0  0  0  0  0  0  0  0  0  0  0
   -4.7577   -0.3543   -0.8053 C   0  0  0  0  0  0  0  0  0  0  0  0
   -5.5112   -1.4588   -0.6978 C   0  0  0  0  0  0  0  0  0  0  0  0
   -4.8588    0.1134    1.5518 O   0  0  0  0  0  0  0  0  0  0  0  0
   -0.1948   -1.8637   -1.5705 C   0  0  0  0  0  0  0  0  0  0  0  0
    6.4743   -0.2206    0.5241 C   0  0  0  0  0  0  0  0  0  0  0  0
  1  2  1  0
  2  3  2  3
  3  4  1  0
  4  5  1  0
  5  6  1  0
  6  7  2  0
  7  8  1  0
  8  9  1  0
  9 10  1  0
 10 11  1  6
 10 12  1  0
 12 13  2  0
 10 14  1  0
  6 15  1  0
  2 16  1  0
M  END
