
     RDKit          3D

 13 14  0  0  0  0  0  0  0  0999 V2000
    3.0721    0.1689   -1.0479 C   0  0  0  0  0  0  0  0  0  0  0  0
    2.3835   -0.4701    0.0092 O   0  0  0  0  0  0  0  0  0  0  0  0
    1.7730    0.4552    1.1925 P   0  0  2  0  0  5  0  0  0  0  0  0
    3.0468    1.4974    2.2092 S   0  0  0  0  0  0  0  0  0  0  0  0
    0.9266   -0.6177    2.0519 O   0  0  0  0  0  0  0  0  0  0  0  0
   -0.0072   -1.4046    1.3412 C   0  0  0  0  0  0  0  0  0  0  0  0
   -0.9199   -0.5730    0.4874 C   0  0  0  0  0  0  0  0  0  0  0  0
   -2.1441   -1.1040    0.0542 C   0  0  0  0  0  0  0  0  0  0  0  0
   -2.9977   -0.3527   -0.7564 C   0  0  0  0  0  0  0  0  0  0  0  0
   -2.6351    0.9344   -1.1477 C   0  0  0  0  0  0  0  0  0  0  0  0
   -1.4164    1.4677   -0.7334 C   0  0  0  0  0  0  0  0  0  0  0  0
   -0.5648    0.7108    0.0702 C   0  0  0  0  0  0  0  0  0  0  0  0
    0.6138    1.2918    0.4392 O   0  0  0  0  0  0  0  0  0  0  0  0
  1  2  1  0
  3  2  1  6
  3  4  2  0
  3  5  1  0
  5  6  1  0
  6  7  1  0
  7  8  2  0
  8  9  1  0
  9 10  2  0
 10 11  1  0
 11 12  2  0
 12 13  1  0
 13  3  1  0
 12  7  1  0
M  END
