
     RDKit          3D

 23 24  0  0  0  0  0  0  0  0999 V2000
   -2.0035   -3.7644    0.1393 F   0  0  0  0  0  0  0  0  0  0  0  0
   -3.1564   -3.0486    0.2369 C   0  0  0  0  0  0  0  0  0  0  0  0
   -3.9197   -3.6864    1.1641 F   0  0  0  0  0  0  0  0  0  0  0  0
   -2.8834   -1.5948    0.6445 C   0  0  0  0  0  0  0  0  0  0  0  0
   -4.0689   -0.9415    0.7957 F   0  0  0  0  0  0  0  0  0  0  0  0
   -2.2509   -1.5098    1.8417 F   0  0  0  0  0  0  0  0  0  0  0  0
   -2.1466   -0.8288   -0.3092 O   0  0  0  0  0  0  0  0  0  0  0  0
   -0.7639   -1.1861   -0.3757 C   0  0  0  0  0  0  0  0  0  0  0  0
   -0.0084   -0.0844   -1.1567 C   0  0  2  0  0  0  0  0  0  0  0  0
    1.4217   -0.5207   -1.5298 C   0  0  0  0  0  0  0  0  0  0  0  0
    2.2908   -0.7663   -0.4016 N   0  0  0  0  0  0  0  0  0  0  0  0
    3.2524    0.0471    0.1089 C   0  0  0  0  0  0  0  0  0  0  0  0
    3.8304   -0.5474    1.1269 N   0  0  0  0  0  0  0  0  0  0  0  0
    3.1846   -1.7490    1.1894 C   0  0  0  0  0  0  0  0  0  0  0  0
    2.2299   -1.9288    0.2718 N   0  0  0  0  0  0  0  0  0  0  0  0
   -0.0164    1.3022   -0.5021 C   0  0  0  0  0  0  0  0  0  0  0  0
    0.0119    1.4395    0.8992 C   0  0  0  0  0  0  0  0  0  0  0  0
    0.0190    2.7003    1.5031 C   0  0  0  0  0  0  0  0  0  0  0  0
    0.0035    3.8463    0.7174 C   0  0  0  0  0  0  0  0  0  0  0  0
    0.0146    5.3960    1.4628 Cl  0  0  0  0  0  0  0  0  0  0  0  0
   -0.0111    3.7453   -0.6684 C   0  0  0  0  0  0  0  0  0  0  0  0
   -0.0165    2.4845   -1.2737 C   0  0  0  0  0  0  0  0  0  0  0  0
    0.0025    2.4532   -3.0041 Cl  0  0  0  0  0  0  0  0  0  0  0  0
  1  2  1  0
  2  3  1  0
  2  4  1  0
  4  5  1  0
  4  6  1  0
  4  7  1  0
  7  8  1  0
  9  8  1  1
  9 10  1  0
 10 11  1  0
 11 12  1  0
 12 13  2  0
 13 14  1  0
 14 15  2  0
  9 16  1  0
 16 17  2  0
 17 18  1  0
 18 19  2  0
 19 20  1  0
 19 21  1  0
 21 22  2  0
 22 23  1  0
 15 11  1  0
 22 16  1  0
M  END
