
     RDKit          3D

 19 20  0  0  0  0  0  0  0  0999 V2000
   -1.4483   -2.6672   -0.5909 O   0  0  0  0  0  0  0  0  0  0  0  0
   -1.6779   -1.4733   -0.4701 C   0  0  0  0  0  0  0  0  0  0  0  0
   -3.0532   -0.8456   -0.5975 C   0  0  1  0  0  0  0  0  0  0  0  0
   -4.3363   -1.8509    0.0783 Cl  0  0  0  0  0  0  0  0  0  0  0  0
   -2.9033    0.5371    0.0365 C   0  0  1  0  0  0  0  0  0  0  0  0
   -3.2378    0.6805    1.5290 C   0  0  0  0  0  0  0  0  0  0  0  0
   -2.2675   -0.3284    2.6225 Cl  0  0  0  0  0  0  0  0  0  0  0  0
   -1.4437    0.8615   -0.2718 C   0  0  0  0  0  0  0  0  0  0  0  0
   -0.7607   -0.4143   -0.2986 N   0  0  0  0  0  0  0  0  0  0  0  0
    0.6563   -0.5284   -0.2330 C   0  0  0  0  0  0  0  0  0  0  0  0
    1.2944   -1.7691   -0.1214 C   0  0  0  0  0  0  0  0  0  0  0  0
    2.6886   -1.8689   -0.0571 C   0  0  0  0  0  0  0  0  0  0  0  0
    3.4770   -0.7241   -0.1006 C   0  0  0  0  0  0  0  0  0  0  0  0
    2.8749    0.5337   -0.2018 C   0  0  0  0  0  0  0  0  0  0  0  0
    3.7138    1.7847   -0.2754 C   0  0  0  0  0  0  0  0  0  0  0  0
    3.1121    2.8599    0.3082 F   0  0  0  0  0  0  0  0  0  0  0  0
    3.9735    2.1571   -1.5589 F   0  0  0  0  0  0  0  0  0  0  0  0
    4.9254    1.6615    0.3336 F   0  0  0  0  0  0  0  0  0  0  0  0
    1.4697    0.6166   -0.2743 C   0  0  0  0  0  0  0  0  0  0  0  0
  1  2  2  0
  2  3  1  0
  3  4  1  1
  3  5  1  0
  5  6  1  1
  6  7  1  0
  5  8  1  0
  8  9  1  0
  9 10  1  0
 10 11  2  0
 11 12  1  0
 12 13  2  0
 13 14  1  0
 14 15  1  0
 15 16  1  0
 15 17  1  0
 15 18  1  0
 14 19  2  0
  9  2  1  0
 19 10  1  0
M  END
