
     RDKit          3D

 18 19  0  0  0  0  0  0  0  0999 V2000
   -1.7067    1.9620    1.0752 O   0  0  0  0  0  0  0  0  0  0  0  0
   -2.6010    1.2007    0.7155 C   0  0  0  0  0  0  0  0  0  0  0  0
   -2.5806    0.4602   -0.6180 C   0  0  0  0  0  0  0  0  0  0  0  0
   -1.1310    0.1125   -1.0468 C   0  0  1  0  0  0  0  0  0  0  0  0
   -0.2931    1.2657   -1.5708 C   0  0  0  0  0  0  0  0  0  0  0  0
    1.1038    0.8976   -1.1717 C   0  0  0  0  0  0  0  0  0  0  0  0
    2.0745    1.3931   -1.7289 O   0  0  0  0  0  0  0  0  0  0  0  0
    1.0485   -0.0323   -0.1548 N   0  0  0  0  0  0  0  0  0  0  0  0
    2.1857   -0.5000    0.5818 C   0  0  0  0  0  0  0  0  0  0  0  0
    3.4331    0.1422    0.4962 C   0  0  0  0  0  0  0  0  0  0  0  0
    4.5479   -0.3134    1.2126 C   0  0  0  0  0  0  0  0  0  0  0  0
    4.4430   -1.4265    2.0360 C   0  0  0  0  0  0  0  0  0  0  0  0
    3.2231   -2.0813    2.1422 C   0  0  0  0  0  0  0  0  0  0  0  0
    2.1104   -1.6225    1.4243 C   0  0  0  0  0  0  0  0  0  0  0  0
   -0.2520   -0.4473    0.0560 C   0  0  0  0  0  0  0  0  0  0  0  0
   -0.6978   -1.1824    0.9278 O   0  0  0  0  0  0  0  0  0  0  0  0
   -3.4218   -0.8220   -0.4640 C   0  0  0  0  0  0  0  0  0  0  0  0
   -3.2767    1.3581   -1.6544 C   0  0  0  0  0  0  0  0  0  0  0  0
  1  2  2  0
  2  3  1  0
  4  3  1  1
  4  5  1  0
  5  6  1  0
  6  7  2  0
  6  8  1  0
  8  9  1  0
  9 10  2  0
 10 11  1  0
 11 12  2  0
 12 13  1  0
 13 14  2  0
  8 15  1  0
 15 16  2  0
  3 17  1  0
  3 18  1  0
 15  4  1  0
 14  9  1  0
M  END
