
     RDKit          3D

 23 24  0  0  0  0  0  0  0  0999 V2000
    3.0838    0.7577    1.5504 F   0  0  0  0  0  0  0  0  0  0  0  0
    3.6007    1.3513    0.4360 C   0  0  0  0  0  0  0  0  0  0  0  0
    4.9517    1.2288    0.5350 F   0  0  0  0  0  0  0  0  0  0  0  0
    3.0739    0.6726   -0.8335 C   0  0  0  0  0  0  0  0  0  0  0  0
    3.4380   -0.6340   -0.8917 F   0  0  0  0  0  0  0  0  0  0  0  0
    3.5995    1.2676   -1.9362 F   0  0  0  0  0  0  0  0  0  0  0  0
    1.6540    0.7679   -0.9677 O   0  0  0  0  0  0  0  0  0  0  0  0
    0.9622   -0.3728   -0.4595 C   0  0  0  0  0  0  0  0  0  0  0  0
   -0.5570   -0.0925   -0.4835 C   0  0  2  0  0  0  0  0  0  0  0  0
   -1.0419    0.7229    0.7330 C   0  0  0  0  0  0  0  0  0  0  0  0
   -0.4514    2.0409    0.8177 N   0  0  0  0  0  0  0  0  0  0  0  0
    0.4603    2.4889    1.7211 C   0  0  0  0  0  0  0  0  0  0  0  0
    0.8060    3.7191    1.4185 N   0  0  0  0  0  0  0  0  0  0  0  0
    0.0174    4.0015    0.3382 C   0  0  0  0  0  0  0  0  0  0  0  0
   -0.7738    3.0034   -0.0636 N   0  0  0  0  0  0  0  0  0  0  0  0
   -1.3937   -1.3582   -0.6736 C   0  0  0  0  0  0  0  0  0  0  0  0
   -2.2457   -1.4034   -1.7972 C   0  0  0  0  0  0  0  0  0  0  0  0
   -3.0497   -2.5160   -2.0542 C   0  0  0  0  0  0  0  0  0  0  0  0
   -3.0175   -3.6036   -1.1905 C   0  0  0  0  0  0  0  0  0  0  0  0
   -4.0070   -4.9748   -1.5037 Cl  0  0  0  0  0  0  0  0  0  0  0  0
   -2.1905   -3.5874   -0.0727 C   0  0  0  0  0  0  0  0  0  0  0  0
   -1.3841   -2.4729    0.1869 C   0  0  0  0  0  0  0  0  0  0  0  0
   -0.4031   -2.5502    1.6058 Cl  0  0  0  0  0  0  0  0  0  0  0  0
  1  2  1  0
  2  3  1  0
  2  4  1  0
  4  5  1  0
  4  6  1  0
  4  7  1  0
  7  8  1  0
  9  8  1  1
  9 10  1  0
 10 11  1  0
 11 12  1  0
 12 13  2  0
 13 14  1  0
 14 15  2  0
  9 16  1  0
 16 17  2  0
 17 18  1  0
 18 19  2  0
 19 20  1  0
 19 21  1  0
 21 22  2  0
 22 23  1  0
 15 11  1  0
 22 16  1  0
M  END
