
     RDKit          3D

 11 11  0  0  0  0  0  0  0  0999 V2000
   -2.7135   -0.9108   -0.5059 C   0  0  0  0  0  0  0  0  0  0  0  0
   -2.0051   -0.4355    0.7570 C   0  0  2  0  0  0  0  0  0  0  0  0
   -2.8706    0.4432    1.4753 O   0  0  0  0  0  0  0  0  0  0  0  0
   -0.7044    0.2630    0.4298 C   0  0  0  0  0  0  0  0  0  0  0  0
   -0.6567    1.6363    0.1558 C   0  0  0  0  0  0  0  0  0  0  0  0
    0.5503    2.2548   -0.1688 C   0  0  0  0  0  0  0  0  0  0  0  0
    1.7255    1.5060   -0.2326 C   0  0  0  0  0  0  0  0  0  0  0  0
    1.7069    0.1271    0.0174 C   0  0  0  0  0  0  0  0  0  0  0  0
    2.9923   -0.6570   -0.0160 C   0  0  0  0  0  0  0  0  0  0  0  0
    2.7610   -2.0115   -0.3839 O   0  0  0  0  0  0  0  0  0  0  0  0
    0.4870   -0.4788    0.3574 C   0  0  0  0  0  0  0  0  0  0  0  0
  2  1  1  6
  2  3  1  0
  2  4  1  0
  4  5  2  0
  5  6  1  0
  6  7  2  0
  7  8  1  0
  8  9  1  0
  9 10  1  0
  8 11  2  0
 11  4  1  0
M  END
