
     RDKit          3D

 14 15  0  0  0  0  0  0  0  0999 V2000
    3.3375    0.7746    1.0964 C   0  0  0  0  0  0  0  0  0  0  0  0
    2.4809    0.5167   -0.1048 C   0  0  0  0  0  0  0  0  0  0  0  0
    2.8668    0.5996   -1.2613 O   0  0  0  0  0  0  0  0  0  0  0  0
    1.2247    0.1741    0.2849 O   0  0  0  0  0  0  0  0  0  0  0  0
    0.2829   -0.0907   -0.7753 C   0  0  1  0  0  0  0  0  0  0  0  0
    0.4139   -1.5419   -1.2398 C   0  0  0  0  0  0  0  0  0  0  0  0
    0.0025   -2.5154   -0.1511 C   0  0  0  0  0  0  0  0  0  0  0  0
   -1.7788   -2.4161    0.1497 S   0  0  0  0  0  0  0  0  0  0  0  0
   -2.0180   -0.6547    0.1987 C   0  0  0  0  0  0  0  0  0  0  0  0
   -3.2295   -0.2910    0.6871 N   0  0  0  0  0  0  0  0  0  0  0  0
   -3.5187    1.0237    0.7626 C   0  0  0  0  0  0  0  0  0  0  0  0
   -2.6496    2.0196    0.3686 C   0  0  0  0  0  0  0  0  0  0  0  0
   -1.4129    1.6382   -0.1349 C   0  0  0  0  0  0  0  0  0  0  0  0
   -1.0758    0.2766   -0.2368 C   0  0  0  0  0  0  0  0  0  0  0  0
  1  2  1  0
  2  3  2  0
  2  4  1  0
  5  4  1  1
  5  6  1  0
  6  7  1  0
  7  8  1  0
  8  9  1  0
  9 10  2  0
 10 11  1  0
 11 12  2  0
 12 13  1  0
 13 14  2  0
 14  5  1  0
 14  9  1  0
M  END
