
     RDKit          3D

 13 14  0  0  0  0  0  0  0  0999 V2000
    3.8515    0.3630    0.8614 C   0  0  0  0  0  0  0  0  0  0  0  0
    2.9532   -0.7189    0.7212 O   0  0  0  0  0  0  0  0  0  0  0  0
    1.7336   -0.5707   -0.3333 P   0  0  1  0  0  5  0  0  0  0  0  0
    2.2249   -0.3316   -2.1933 S   0  0  0  0  0  0  0  0  0  0  0  0
    0.8739   -1.8924    0.0173 O   0  0  0  0  0  0  0  0  0  0  0  0
   -0.4588   -1.8940   -0.4568 C   0  0  0  0  0  0  0  0  0  0  0  0
   -1.1979   -0.6433   -0.0694 C   0  0  0  0  0  0  0  0  0  0  0  0
   -2.6000   -0.6258   -0.1091 C   0  0  0  0  0  0  0  0  0  0  0  0
   -3.3062    0.5290    0.2351 C   0  0  0  0  0  0  0  0  0  0  0  0
   -2.6198    1.6798    0.6179 C   0  0  0  0  0  0  0  0  0  0  0  0
   -1.2268    1.6788    0.6508 C   0  0  0  0  0  0  0  0  0  0  0  0
   -0.5265    0.5265    0.2979 C   0  0  0  0  0  0  0  0  0  0  0  0
    0.8373    0.5887    0.3498 O   0  0  0  0  0  0  0  0  0  0  0  0
  1  2  1  0
  3  2  1  1
  3  4  2  0
  3  5  1  0
  5  6  1  0
  6  7  1  0
  7  8  2  0
  8  9  1  0
  9 10  2  0
 10 11  1  0
 11 12  2  0
 12 13  1  0
 13  3  1  0
 12  7  1  0
M  END
