
     RDKit          3D

 26 28  0  0  0  0  0  0  0  0999 V2000
    4.8060    0.9831   -3.3557 C   0  0  0  0  0  0  0  0  0  0  0  0
    4.2043    0.3500   -2.1238 C   0  0  0  0  0  0  0  0  0  0  0  0
    4.7879   -1.0120   -1.8184 C   0  0  0  0  0  0  0  0  0  0  0  0
    3.7837    1.2826   -0.9985 C   0  0  2  0  0  0  0  0  0  0  0  0
    4.0303    0.9053    0.4029 C   0  0  0  0  0  0  0  0  0  0  0  0
    5.1804    1.0232    1.0860 C   0  0  0  0  0  0  0  0  0  0  0  0
    5.2620    0.5382    2.7425 Cl  0  0  0  0  0  0  0  0  0  0  0  0
    6.6154    1.6600    0.3693 Cl  0  0  0  0  0  0  0  0  0  0  0  0
    2.7279    0.6127   -1.8547 C   0  0  2  0  0  0  0  0  0  0  0  0
    1.8136   -0.4418   -1.3590 C   0  0  0  0  0  0  0  0  0  0  0  0
    1.7742   -1.5600   -1.8497 O   0  0  0  0  0  0  0  0  0  0  0  0
    1.0152    0.0214   -0.3639 O   0  0  0  0  0  0  0  0  0  0  0  0
    0.0863   -0.9556    0.1183 C   0  0  0  0  0  0  0  0  0  0  0  0
   -0.7649   -0.3580    1.2140 C   0  0  0  0  0  0  0  0  0  0  0  0
   -0.2163    0.4965    2.1834 C   0  0  0  0  0  0  0  0  0  0  0  0
   -1.0044    0.9954    3.2226 C   0  0  0  0  0  0  0  0  0  0  0  0
   -2.3510    0.6454    3.3073 C   0  0  0  0  0  0  0  0  0  0  0  0
   -2.9117   -0.1937    2.3459 C   0  0  0  0  0  0  0  0  0  0  0  0
   -4.2360   -0.5345    2.5141 O   0  0  0  0  0  0  0  0  0  0  0  0
   -5.0305   -0.5439    1.3908 C   0  0  0  0  0  0  0  0  0  0  0  0
   -5.1147    0.5507    0.5263 C   0  0  0  0  0  0  0  0  0  0  0  0
   -5.9646    0.4948   -0.5792 C   0  0  0  0  0  0  0  0  0  0  0  0
   -6.7377   -0.6447   -0.8093 C   0  0  0  0  0  0  0  0  0  0  0  0
   -6.6684   -1.7274    0.0693 C   0  0  0  0  0  0  0  0  0  0  0  0
   -5.8199   -1.6744    1.1757 C   0  0  0  0  0  0  0  0  0  0  0  0
   -2.1192   -0.7135    1.3171 C   0  0  0  0  0  0  0  0  0  0  0  0
  1  2  1  0
  2  3  1  0
  2  4  1  0
  4  5  1  1
  5  6  2  3
  6  7  1  0
  6  8  1  0
  4  9  1  0
  9 10  1  1
 10 11  2  0
 10 12  1  0
 12 13  1  0
 13 14  1  0
 14 15  2  0
 15 16  1  0
 16 17  2  0
 17 18  1  0
 18 19  1  0
 19 20  1  0
 20 21  2  0
 21 22  1  0
 22 23  2  0
 23 24  1  0
 24 25  2  0
 18 26  2  0
  9  2  1  0
 26 14  1  0
 25 20  1  0
M  END
