
     RDKit          3D

 24 26  0  0  0  0  0  0  0  0999 V2000
   -1.9365   -0.7480    2.8280 N   0  0  0  0  0  0  0  0  0  0  0  0
   -1.6560   -0.3376    1.7792 C   0  0  0  0  0  0  0  0  0  0  0  0
   -1.3368    0.1799    0.4214 C   0  0  1  0  0  0  0  0  0  0  0  0
    0.0291   -0.4361   -0.0154 C   0  0  0  0  0  0  0  0  0  0  0  0
    1.2369    0.0374    0.8143 C   0  0  0  0  0  0  0  0  0  0  0  0
    2.5162   -0.6006    0.3278 C   0  0  0  0  0  0  0  0  0  0  0  0
    2.9043   -1.8619    0.8015 C   0  0  0  0  0  0  0  0  0  0  0  0
    4.0774   -2.4607    0.3373 C   0  0  0  0  0  0  0  0  0  0  0  0
    4.8647   -1.8024   -0.6046 C   0  0  0  0  0  0  0  0  0  0  0  0
    6.3100   -2.5400   -1.1771 Cl  0  0  0  0  0  0  0  0  0  0  0  0
    4.4885   -0.5509   -1.0875 C   0  0  0  0  0  0  0  0  0  0  0  0
    3.3152    0.0482   -0.6240 C   0  0  0  0  0  0  0  0  0  0  0  0
   -2.4976   -0.2614   -0.5181 C   0  0  0  0  0  0  0  0  0  0  0  0
   -2.6678   -1.6904   -0.6706 N   0  0  0  0  0  0  0  0  0  0  0  0
   -3.5092   -2.5178    0.0038 C   0  0  0  0  0  0  0  0  0  0  0  0
   -3.3984   -3.7352   -0.4755 N   0  0  0  0  0  0  0  0  0  0  0  0
   -2.4695   -3.5950   -1.4657 C   0  0  0  0  0  0  0  0  0  0  0  0
   -1.9974   -2.3556   -1.6278 N   0  0  0  0  0  0  0  0  0  0  0  0
   -1.2873    1.7281    0.3638 C   0  0  0  0  0  0  0  0  0  0  0  0
   -1.6510    2.5378    1.4565 C   0  0  0  0  0  0  0  0  0  0  0  0
   -1.6035    3.9325    1.3687 C   0  0  0  0  0  0  0  0  0  0  0  0
   -1.1971    4.5490    0.1900 C   0  0  0  0  0  0  0  0  0  0  0  0
   -0.8382    3.7726   -0.9057 C   0  0  0  0  0  0  0  0  0  0  0  0
   -0.8841    2.3791   -0.8217 C   0  0  0  0  0  0  0  0  0  0  0  0
  1  2  3  0
  3  2  1  1
  3  4  1  0
  4  5  1  0
  5  6  1  0
  6  7  2  0
  7  8  1  0
  8  9  2  0
  9 10  1  0
  9 11  1  0
 11 12  2  0
  3 13  1  0
 13 14  1  0
 14 15  1  0
 15 16  2  0
 16 17  1  0
 17 18  2  0
  3 19  1  0
 19 20  2  0
 20 21  1  0
 21 22  2  0
 22 23  1  0
 23 24  2  0
 12  6  1  0
 18 14  1  0
 24 19  1  0
M  END
