
     RDKit          3D

 20 21  0  0  0  0  0  0  0  0999 V2000
   -1.4890    0.6976    1.1488 C   0  0  0  0  0  0  0  0  0  0  0  0
   -1.6970    0.7911   -0.3743 C   0  0  0  0  0  0  0  0  0  0  0  0
   -2.0258    2.2640   -0.7172 C   0  0  0  0  0  0  0  0  0  0  0  0
   -2.9327   -0.0464   -0.7403 C   0  0  0  0  0  0  0  0  0  0  0  0
   -0.3911    0.3759   -1.1452 C   0  0  2  0  0  0  0  0  0  0  0  0
   -0.5562    0.5686   -2.5512 O   0  0  0  0  0  0  0  0  0  0  0  0
    0.1945   -1.0123   -0.8837 C   0  0  0  0  0  0  0  0  0  0  0  0
    1.2630   -1.1889   -0.0623 C   0  0  0  0  0  0  0  0  0  0  0  0
    2.0267   -0.1647    0.6562 C   0  0  0  0  0  0  0  0  0  0  0  0
    2.9082    0.6828   -0.0259 C   0  0  0  0  0  0  0  0  0  0  0  0
    3.6408    1.6453    0.6734 C   0  0  0  0  0  0  0  0  0  0  0  0
    3.5005    1.7528    2.0558 C   0  0  0  0  0  0  0  0  0  0  0  0
    4.4011    2.9392    2.9161 Cl  0  0  0  0  0  0  0  0  0  0  0  0
    2.6396    0.9019    2.7460 C   0  0  0  0  0  0  0  0  0  0  0  0
    1.9076   -0.0610    2.0466 C   0  0  0  0  0  0  0  0  0  0  0  0
   -0.3568   -2.1602   -1.5250 N   0  0  0  0  0  0  0  0  0  0  0  0
   -1.3104   -2.2350   -2.5338 C   0  0  0  0  0  0  0  0  0  0  0  0
   -1.5750   -3.4747   -2.8731 N   0  0  0  0  0  0  0  0  0  0  0  0
   -0.7445   -4.1786   -2.0717 C   0  0  0  0  0  0  0  0  0  0  0  0
    0.0189   -3.4566   -1.2573 N   0  0  0  0  0  0  0  0  0  0  0  0
  1  2  1  0
  2  3  1  0
  2  4  1  0
  2  5  1  0
  5  6  1  6
  5  7  1  0
  7  8  2  0
  8  9  1  0
  9 10  2  0
 10 11  1  0
 11 12  2  0
 12 13  1  0
 12 14  1  0
 14 15  2  0
  7 16  1  0
 16 17  1  0
 17 18  2  0
 18 19  1  0
 19 20  2  0
 15  9  1  0
 20 16  1  0
M  END
