
     RDKit          3D

  6  5  0  0  0  0  0  0  0  0999 V2000
    1.9221   -0.8235    1.0984 Cl  0  0  0  0  0  0  0  0  0  0  0  0
    1.2130   -0.2728   -0.4429 C   0  0  0  0  0  0  0  0  0  0  0  0
   -0.0768    0.5332   -0.2816 C   0  0  2  0  0  0  0  0  0  0  0  0
    0.3426    2.2895    0.5096 Br  0  0  0  0  0  0  0  0  0  0  0  0
   -1.1767   -0.1109    0.5470 C   0  0  0  0  0  0  0  0  0  0  0  0
   -1.9069   -1.6713   -0.3673 Br  0  0  0  0  0  0  0  0  0  0  0  0
  1  2  1  0
  2  3  1  0
  3  4  1  1
  3  5  1  0
  5  6  1  0
M  END
