
     RDKit          3D

 19 20  0  0  0  0  0  0  0  0999 V2000
   -1.5556   -2.3897    1.2597 O   0  0  0  0  0  0  0  0  0  0  0  0
   -1.6843   -1.2956    0.7299 C   0  0  0  0  0  0  0  0  0  0  0  0
   -3.0350   -0.6783    0.3981 C   0  0  2  0  0  0  0  0  0  0  0  0
   -3.6097   -1.4307   -1.1113 Cl  0  0  0  0  0  0  0  0  0  0  0  0
   -2.6881    0.8040    0.2685 C   0  0  2  0  0  0  0  0  0  0  0  0
   -3.6321    1.6813   -0.5367 C   0  0  0  0  0  0  0  0  0  0  0  0
   -5.2482    1.7230    0.2036 Cl  0  0  0  0  0  0  0  0  0  0  0  0
   -1.2830    0.7693   -0.3130 C   0  0  0  0  0  0  0  0  0  0  0  0
   -0.6849   -0.4065    0.2802 N   0  0  0  0  0  0  0  0  0  0  0  0
    0.7182   -0.6432    0.2766 C   0  0  0  0  0  0  0  0  0  0  0  0
    1.2838   -1.7534    0.9145 C   0  0  0  0  0  0  0  0  0  0  0  0
    2.6660   -1.9720    0.9090 C   0  0  0  0  0  0  0  0  0  0  0  0
    3.5149   -1.0823    0.2597 C   0  0  0  0  0  0  0  0  0  0  0  0
    2.9859    0.0323   -0.3977 C   0  0  0  0  0  0  0  0  0  0  0  0
    3.8913    1.0185   -1.0925 C   0  0  0  0  0  0  0  0  0  0  0  0
    3.3248    1.5606   -2.2074 F   0  0  0  0  0  0  0  0  0  0  0  0
    5.0715    0.4765   -1.5012 F   0  0  0  0  0  0  0  0  0  0  0  0
    4.2168    2.0710   -0.2928 F   0  0  0  0  0  0  0  0  0  0  0  0
    1.5923    0.2435   -0.3747 C   0  0  0  0  0  0  0  0  0  0  0  0
  1  2  2  0
  2  3  1  0
  3  4  1  6
  3  5  1  0
  5  6  1  6
  6  7  1  0
  5  8  1  0
  8  9  1  0
  9 10  1  0
 10 11  2  0
 11 12  1  0
 12 13  2  0
 13 14  1  0
 14 15  1  0
 15 16  1  0
 15 17  1  0
 15 18  1  0
 14 19  2  0
  9  2  1  0
 19 10  1  0
M  END
