
     RDKit          3D

 15 15  0  0  0  0  0  0  0  0999 V2000
   -3.8432    0.9890    0.6779 C   0  0  0  0  0  0  0  0  0  0  0  0
   -3.6049    0.2497   -0.6100 C   0  0  0  0  0  0  0  0  0  0  0  0
   -4.6647   -0.7645   -0.9508 C   0  0  0  0  0  0  0  0  0  0  0  0
   -2.5449    0.4383   -1.4201 C   0  0  0  0  0  0  0  0  0  0  0  0
   -1.4263    1.4229   -1.2332 C   0  0  0  0  0  0  0  0  0  0  0  0
   -0.2877    0.9457   -0.3210 C   0  0  0  0  0  0  0  0  0  0  0  0
    0.6545   -0.1119   -0.9390 C   0  0  2  0  0  0  0  0  0  0  0  0
    0.0497   -1.5190   -0.9781 C   0  0  0  0  0  0  0  0  0  0  0  0
    1.9922   -0.1354   -0.1986 C   0  0  0  0  0  0  0  0  0  0  0  0
    3.1154    0.2820   -0.8115 C   0  0  0  0  0  0  0  0  0  0  0  0
    4.4386    0.2102   -0.1428 C   0  0  0  0  0  0  0  0  0  0  0  0
    5.4377    0.6021   -0.7412 O   0  0  0  0  0  0  0  0  0  0  0  0
    4.5159   -0.4172    1.2285 C   0  0  0  0  0  0  0  0  0  0  0  0
    3.2326   -0.1766    2.0064 C   0  0  0  0  0  0  0  0  0  0  0  0
    2.0065   -0.6468    1.2257 C   0  0  0  0  0  0  0  0  0  0  0  0
  1  2  1  0
  2  3  1  0
  2  4  2  3
  4  5  1  0
  5  6  1  0
  6  7  1  0
  7  8  1  1
  7  9  1  0
  9 10  2  0
 10 11  1  0
 11 12  2  0
 11 13  1  0
 13 14  1  0
 14 15  1  0
 15  9  1  0
M  END
