
     RDKit          3D

 20 20  0  0  0  0  0  0  0  0999 V2000
    2.0271    1.0933    2.8036 C   0  0  0  0  0  0  0  0  0  0  0  0
    2.4423    1.7830    1.5126 C   0  0  0  0  0  0  0  0  0  0  0  0
    3.1256    0.8435    0.5159 C   0  0  0  0  0  0  0  0  0  0  0  0
    2.2417   -0.1920    0.0104 N   0  0  0  0  0  0  0  0  0  0  0  0
    2.2040   -1.4614    0.5074 C   0  0  0  0  0  0  0  0  0  0  0  0
    2.9379   -1.9376    1.3596 O   0  0  0  0  0  0  0  0  0  0  0  0
    1.0681   -2.1958   -0.1401 C   0  0  0  0  0  0  0  0  0  0  0  0
    0.6289   -1.2834   -1.2867 C   0  0  1  0  0  0  0  0  0  0  0  0
   -0.8780   -1.0973   -1.5182 C   0  0  1  0  0  0  0  0  0  0  0  0
   -1.0009   -0.4929   -2.7518 F   0  0  0  0  0  0  0  0  0  0  0  0
   -1.6239   -2.4307   -1.5898 C   0  0  0  0  0  0  0  0  0  0  0  0
   -3.1056   -2.3653   -1.8740 C   0  0  0  0  0  0  0  0  0  0  0  0
   -1.0642   -3.5213   -1.4612 O   0  0  0  0  0  0  0  0  0  0  0  0
   -1.4928   -0.2303   -0.4217 C   0  0  0  0  0  0  0  0  0  0  0  0
   -1.3317   -0.4258    0.7767 O   0  0  0  0  0  0  0  0  0  0  0  0
   -2.2651    0.7585   -0.9491 O   0  0  0  0  0  0  0  0  0  0  0  0
   -2.8589    1.6709   -0.0135 C   0  0  0  0  0  0  0  0  0  0  0  0
   -1.8761    2.7692    0.3459 C   0  0  0  0  0  0  0  0  0  0  0  0
    1.2882    0.0266   -0.9392 C   0  0  0  0  0  0  0  0  0  0  0  0
    1.0141    1.1010   -1.4514 O   0  0  0  0  0  0  0  0  0  0  0  0
  1  2  1  0
  2  3  1  0
  3  4  1  0
  4  5  1  0
  5  6  2  0
  5  7  1  0
  8  7  1  1
  8  9  1  0
  9 10  1  6
  9 11  1  0
 11 12  1  0
 11 13  2  0
  9 14  1  0
 14 15  2  0
 14 16  1  0
 16 17  1  0
 17 18  1  0
  8 19  1  0
 19 20  2  0
 19  4  1  0
M  END
