
     RDKit          3D

 11 12  0  0  0  0  0  0  0  0999 V2000
   -1.3197   -1.2143   -1.8187 O   0  0  0  0  0  0  0  0  0  0  0  0
   -1.0478   -1.2462   -0.4163 C   0  0  2  0  0  0  0  0  0  0  0  0
   -2.1675   -0.4994    0.3115 C   0  0  0  0  0  0  0  0  0  0  0  0
   -2.0185    1.0082    0.1272 C   0  0  0  0  0  0  0  0  0  0  0  0
   -0.7029    1.4929    0.7326 C   0  0  0  0  0  0  0  0  0  0  0  0
    0.4837    0.6434    0.3465 C   0  0  0  0  0  0  0  0  0  0  0  0
    1.7768    1.1485    0.5499 C   0  0  0  0  0  0  0  0  0  0  0  0
    2.8980    0.3800    0.2379 C   0  0  0  0  0  0  0  0  0  0  0  0
    2.7409   -0.9043   -0.2744 C   0  0  0  0  0  0  0  0  0  0  0  0
    1.4617   -1.4223   -0.4717 C   0  0  0  0  0  0  0  0  0  0  0  0
    0.3234   -0.6619   -0.1556 C   0  0  0  0  0  0  0  0  0  0  0  0
  2  1  1  6
  2  3  1  0
  3  4  1  0
  4  5  1  0
  5  6  1  0
  6  7  2  0
  7  8  1  0
  8  9  2  0
  9 10  1  0
 10 11  2  0
 11  2  1  0
 11  6  1  0
M  END
