
     RDKit          3D

 27 29  0  0  0  0  0  0  0  0999 V2000
    2.8778   -1.4223    0.9134 C   0  0  0  0  0  0  0  0  0  0  0  0
    2.3219   -0.5271   -0.2135 C   0  0  2  0  0  0  0  0  0  0  0  0
    2.9540   -0.9846   -1.4111 O   0  0  0  0  0  0  0  0  0  0  0  0
    2.6749    0.9609    0.0156 C   0  0  0  0  0  0  0  0  0  0  0  0
    4.0820    1.2017    0.2476 N   0  0  0  0  0  0  0  0  0  0  0  0
    5.0792    1.2822   -0.6731 C   0  0  0  0  0  0  0  0  0  0  0  0
    6.2127    1.5514   -0.0665 N   0  0  0  0  0  0  0  0  0  0  0  0
    5.8463    1.6323    1.2467 C   0  0  0  0  0  0  0  0  0  0  0  0
    4.5489    1.4262    1.4915 N   0  0  0  0  0  0  0  0  0  0  0  0
    0.7921   -0.6464   -0.3853 C   0  0  0  0  0  0  0  0  0  0  0  0
   -0.0044   -0.8406    0.7687 C   0  0  0  0  0  0  0  0  0  0  0  0
   -1.3948   -0.9539    0.7006 C   0  0  0  0  0  0  0  0  0  0  0  0
   -2.0349   -0.8498   -0.5260 C   0  0  0  0  0  0  0  0  0  0  0  0
   -3.3938   -0.9932   -0.6802 O   0  0  0  0  0  0  0  0  0  0  0  0
   -4.2048   -0.3217    0.2055 C   0  0  0  0  0  0  0  0  0  0  0  0
   -4.0603    1.0439    0.4676 C   0  0  0  0  0  0  0  0  0  0  0  0
   -4.9393    1.6763    1.3495 C   0  0  0  0  0  0  0  0  0  0  0  0
   -5.9645    0.9449    1.9496 C   0  0  0  0  0  0  0  0  0  0  0  0
   -7.0464    1.7255    3.0359 Cl  0  0  0  0  0  0  0  0  0  0  0  0
   -6.1239   -0.4124    1.6705 C   0  0  0  0  0  0  0  0  0  0  0  0
   -5.2458   -1.0457    0.7889 C   0  0  0  0  0  0  0  0  0  0  0  0
   -1.2839   -0.6582   -1.6819 C   0  0  0  0  0  0  0  0  0  0  0  0
    0.1245   -0.5288   -1.6384 C   0  0  0  0  0  0  0  0  0  0  0  0
    0.8256   -0.2851   -2.9674 C   0  0  0  0  0  0  0  0  0  0  0  0
    1.4719   -1.3889   -3.4339 F   0  0  0  0  0  0  0  0  0  0  0  0
    1.7292    0.7321   -2.9287 F   0  0  0  0  0  0  0  0  0  0  0  0
   -0.0424    0.0639   -3.9645 F   0  0  0  0  0  0  0  0  0  0  0  0
  2  1  1  1
  2  3  1  0
  2  4  1  0
  4  5  1  0
  5  6  1  0
  6  7  2  0
  7  8  1  0
  8  9  2  0
  2 10  1  0
 10 11  2  0
 11 12  1  0
 12 13  2  0
 13 14  1  0
 14 15  1  0
 15 16  2  0
 16 17  1  0
 17 18  2  0
 18 19  1  0
 18 20  1  0
 20 21  2  0
 13 22  1  0
 22 23  2  0
 23 24  1  0
 24 25  1  0
 24 26  1  0
 24 27  1  0
  9  5  1  0
 23 10  1  0
 21 15  1  0
M  END
