
     RDKit          3D

 18 18  0  0  0  0  0  0  0  0999 V2000
   -4.3884    2.7033   -0.3741 C   0  0  0  0  0  0  0  0  0  0  0  0
   -3.1397    2.5232    0.4644 C   0  0  0  0  0  0  0  0  0  0  0  0
   -3.0286    1.1543    0.8180 O   0  0  0  0  0  0  0  0  0  0  0  0
   -1.6074    0.6195    1.3872 P   0  0  0  0  0  5  0  0  0  0  0  0
   -0.9985    1.4516    3.0294 S   0  0  0  0  0  0  0  0  0  0  0  0
   -1.8862   -0.9736    1.4861 O   0  0  0  0  0  0  0  0  0  0  0  0
   -2.5302   -1.6296    0.4071 C   0  0  0  0  0  0  0  0  0  0  0  0
   -2.2662   -3.1168    0.5217 C   0  0  0  0  0  0  0  0  0  0  0  0
   -0.6639    0.7513    0.0822 O   0  0  0  0  0  0  0  0  0  0  0  0
    0.5975    0.2463   -0.0585 C   0  0  0  0  0  0  0  0  0  0  0  0
    1.2747    0.6298   -1.2167 C   0  0  0  0  0  0  0  0  0  0  0  0
    2.5687    0.1661   -1.4641 C   0  0  0  0  0  0  0  0  0  0  0  0
    3.1962   -0.6845   -0.5507 C   0  0  0  0  0  0  0  0  0  0  0  0
    4.8702   -1.2971   -0.8476 S   0  0  0  0  0  4  0  0  0  0  0  0
    5.7217   -0.1777    0.2944 C   0  0  0  0  0  0  0  0  0  0  0  0
    5.2254   -0.8660   -2.2408 O   0  0  0  0  0  0  0  0  0  0  0  0
    2.5085   -1.0786    0.6018 C   0  0  0  0  0  0  0  0  0  0  0  0
    1.2116   -0.6143    0.8479 C   0  0  0  0  0  0  0  0  0  0  0  0
  1  2  1  0
  2  3  1  0
  3  4  1  0
  4  5  2  0
  4  6  1  0
  6  7  1  0
  7  8  1  0
  4  9  1  0
  9 10  1  0
 10 11  2  0
 11 12  1  0
 12 13  2  0
 13 14  1  0
 14 15  1  1
 14 16  2  0
 13 17  1  0
 17 18  2  0
 18 10  1  0
M  END
