
     RDKit          3D

 11 12  0  0  0  0  0  0  0  0999 V2000
   -1.8079    1.6434    0.9850 O   0  0  0  0  0  0  0  0  0  0  0  0
   -1.8156    0.7339   -0.1076 C   0  0  2  0  0  0  0  0  0  0  0  0
   -2.3979   -0.6170    0.3441 C   0  0  0  0  0  0  0  0  0  0  0  0
   -1.1991   -1.5615    0.5502 C   0  0  0  0  0  0  0  0  0  0  0  0
    0.0192   -0.6475    0.5098 C   0  0  0  0  0  0  0  0  0  0  0  0
    1.3451   -1.3006    0.1353 C   0  0  0  0  0  0  0  0  0  0  0  0
    2.4457   -0.2546   -0.0867 C   0  0  0  0  0  0  0  0  0  0  0  0
    3.1113    0.3884    1.6460 Br  0  0  0  0  0  0  0  0  0  0  0  0
    2.0147    0.9415   -0.9469 C   0  0  0  0  0  0  0  0  0  0  0  0
    0.6363    1.5148   -0.5837 C   0  0  0  0  0  0  0  0  0  0  0  0
   -0.3900    0.3916   -0.5333 C   0  0  0  0  0  0  0  0  0  0  0  0
  2  1  1  1
  2  3  1  0
  3  4  1  0
  4  5  1  0
  5  6  1  0
  6  7  1  0
  7  8  1  0
  7  9  1  0
  9 10  1  0
 10 11  1  0
 11  2  1  0
 11  5  1  0
M  END
