
     RDKit          3D

 18 20  0  0  0  0  0  0  0  0999 V2000
   -4.2045   -1.0028    1.0179 C   0  0  0  0  0  0  0  0  0  0  0  0
   -3.0538   -0.0127    0.8899 C   0  0  0  0  0  0  0  0  0  0  0  0
   -1.9828   -0.2391    1.9586 C   0  0  0  0  0  0  0  0  0  0  0  0
   -0.7744    0.4889    1.3974 C   0  0  0  0  0  0  0  0  0  0  0  0
   -0.7688    0.0424   -0.0678 C   0  0  2  0  0  0  0  0  0  0  0  0
    0.1590    0.8810   -0.9557 C   0  0  0  0  0  0  0  0  0  0  0  0
    1.5910    0.6927   -0.5996 C   0  0  0  0  0  0  0  0  0  0  0  0
    2.3606    1.4616    0.1472 N   0  0  0  0  0  0  0  0  0  0  0  0
    3.5670    0.8081    0.1433 C   0  0  0  0  0  0  0  0  0  0  0  0
    4.7872    1.1196    0.7564 C   0  0  0  0  0  0  0  0  0  0  0  0
    5.8659    0.2416    0.5671 C   0  0  0  0  0  0  0  0  0  0  0  0
    5.7306   -0.9149   -0.2125 C   0  0  0  0  0  0  0  0  0  0  0  0
    4.5171   -1.2394   -0.8317 C   0  0  0  0  0  0  0  0  0  0  0  0
    3.4753   -0.3451   -0.6193 C   0  0  0  0  0  0  0  0  0  0  0  0
    2.2025   -0.4258   -1.1036 O   0  0  0  0  0  0  0  0  0  0  0  0
   -2.2834    0.0164   -0.4760 C   0  0  0  0  0  0  0  0  0  0  0  0
   -2.7313    1.2665   -1.2589 C   0  0  0  0  0  0  0  0  0  0  0  0
   -2.5368   -1.2114   -1.3688 C   0  0  0  0  0  0  0  0  0  0  0  0
  1  2  1  0
  2  3  1  0
  3  4  1  0
  4  5  1  0
  5  6  1  6
  6  7  1  0
  7  8  2  0
  8  9  1  0
  9 10  2  0
 10 11  1  0
 11 12  2  0
 12 13  1  0
 13 14  2  0
 14 15  1  0
  5 16  1  0
 16 17  1  0
 16 18  1  0
 16  2  1  0
 15  7  1  0
 14  9  1  0
M  END
