
     RDKit          3D

 22 23  0  0  0  0  0  0  0  0999 V2000
   -6.0343    0.3894    1.2800 C   0  0  0  0  0  0  0  0  0  0  0  0
   -5.2308   -0.3007    0.3210 O   0  0  0  0  0  0  0  0  0  0  0  0
   -4.1791    0.4307   -0.1550 C   0  0  0  0  0  0  0  0  0  0  0  0
   -3.9346    1.5810    0.1853 O   0  0  0  0  0  0  0  0  0  0  0  0
   -3.3941   -0.3752   -1.2060 C   0  0  2  0  0  0  0  0  0  0  0  0
   -3.1754   -1.8425   -0.8299 C   0  0  0  0  0  0  0  0  0  0  0  0
   -2.2077    0.2137   -1.7338 O   0  0  0  0  0  0  0  0  0  0  0  0
   -1.0893    0.3847   -0.9726 C   0  0  0  0  0  0  0  0  0  0  0  0
   -0.9934    0.2738    0.4131 C   0  0  0  0  0  0  0  0  0  0  0  0
    0.2341    0.4808    1.0534 C   0  0  0  0  0  0  0  0  0  0  0  0
    1.3720    0.7893    0.3102 C   0  0  0  0  0  0  0  0  0  0  0  0
    2.5356    1.0043    1.0127 O   0  0  0  0  0  0  0  0  0  0  0  0
    3.6876    0.4479    0.5018 C   0  0  0  0  0  0  0  0  0  0  0  0
    3.7661   -0.9265    0.2451 C   0  0  0  0  0  0  0  0  0  0  0  0
    4.9563   -1.4776   -0.2326 C   0  0  0  0  0  0  0  0  0  0  0  0
    6.0666   -0.6583   -0.4369 C   0  0  0  0  0  0  0  0  0  0  0  0
    7.5314   -1.3428   -1.0255 Cl  0  0  0  0  0  0  0  0  0  0  0  0
    6.0035    0.7069   -0.1634 C   0  0  0  0  0  0  0  0  0  0  0  0
    4.8135    1.2585    0.3142 C   0  0  0  0  0  0  0  0  0  0  0  0
    4.7664    2.9512    0.6477 Cl  0  0  0  0  0  0  0  0  0  0  0  0
    1.2794    0.9369   -1.0725 C   0  0  0  0  0  0  0  0  0  0  0  0
    0.0518    0.7295   -1.7061 C   0  0  0  0  0  0  0  0  0  0  0  0
  1  2  1  0
  2  3  1  0
  3  4  2  0
  3  5  1  0
  5  6  1  1
  5  7  1  0
  7  8  1  0
  8  9  2  0
  9 10  1  0
 10 11  2  0
 11 12  1  0
 12 13  1  0
 13 14  2  0
 14 15  1  0
 15 16  2  0
 16 17  1  0
 16 18  1  0
 18 19  2  0
 19 20  1  0
 11 21  1  0
 21 22  2  0
 22  8  1  0
 19 13  1  0
M  END
