
     RDKit          3D

 26 28  0  0  0  0  0  0  0  0999 V2000
   -4.3768    2.3033   -0.0766 C   0  0  0  0  0  0  0  0  0  0  0  0
   -3.5084    1.0874    0.1699 C   0  0  0  0  0  0  0  0  0  0  0  0
   -2.6477    0.7605   -1.0320 C   0  0  0  0  0  0  0  0  0  0  0  0
   -2.9773    0.8911    1.5881 C   0  0  0  0  0  0  0  0  0  0  0  0
   -1.6006    0.4320    1.8860 C   0  0  0  0  0  0  0  0  0  0  0  0
   -1.3716   -0.4794    2.6655 O   0  0  0  0  0  0  0  0  0  0  0  0
   -0.6708    1.1665    1.2310 O   0  0  0  0  0  0  0  0  0  0  0  0
    0.6856    0.7448    1.4638 C   0  0  2  0  0  0  0  0  0  0  0  0
    1.2378    1.3804    2.6811 C   0  0  0  0  0  0  0  0  0  0  0  0
    1.6653    1.8928    3.6332 N   0  0  0  0  0  0  0  0  0  0  0  0
    1.4716    1.1210    0.2159 C   0  0  0  0  0  0  0  0  0  0  0  0
    1.5652    2.4563   -0.2133 C   0  0  0  0  0  0  0  0  0  0  0  0
    2.2716    2.7848   -1.3716 C   0  0  0  0  0  0  0  0  0  0  0  0
    2.8953    1.7853   -2.1160 C   0  0  0  0  0  0  0  0  0  0  0  0
    2.8255    0.4588   -1.6966 C   0  0  0  0  0  0  0  0  0  0  0  0
    3.4303   -0.4751   -2.5078 O   0  0  0  0  0  0  0  0  0  0  0  0
    4.0705   -1.5257   -1.8950 C   0  0  0  0  0  0  0  0  0  0  0  0
    5.0731   -1.3301   -0.9416 C   0  0  0  0  0  0  0  0  0  0  0  0
    5.7117   -2.4354   -0.3768 C   0  0  0  0  0  0  0  0  0  0  0  0
    5.3590   -3.7261   -0.7755 C   0  0  0  0  0  0  0  0  0  0  0  0
    4.3712   -3.9161   -1.7437 C   0  0  0  0  0  0  0  0  0  0  0  0
    3.7324   -2.8140   -2.3113 C   0  0  0  0  0  0  0  0  0  0  0  0
    2.1006    0.1224   -0.5480 C   0  0  0  0  0  0  0  0  0  0  0  0
   -4.0414   -0.0606    1.0453 C   0  0  0  0  0  0  0  0  0  0  0  0
   -3.6735   -1.4915    0.7078 C   0  0  0  0  0  0  0  0  0  0  0  0
   -5.4318    0.0381    1.6355 C   0  0  0  0  0  0  0  0  0  0  0  0
  1  2  1  0
  2  3  1  0
  2  4  1  0
  4  5  1  0
  5  6  2  0
  5  7  1  0
  7  8  1  0
  8  9  1  1
  9 10  3  0
  8 11  1  0
 11 12  2  0
 12 13  1  0
 13 14  2  0
 14 15  1  0
 15 16  1  0
 16 17  1  0
 17 18  2  0
 18 19  1  0
 19 20  2  0
 20 21  1  0
 21 22  2  0
 15 23  2  0
  4 24  1  0
 24 25  1  0
 24 26  1  0
 24  2  1  0
 23 11  1  0
 22 17  1  0
M  END
