
     RDKit          3D

 20 21  0  0  0  0  0  0  0  0999 V2000
   -1.2990   -0.9054    1.3993 C   0  0  0  0  0  0  0  0  0  0  0  0
   -1.7635   -0.6099   -0.0391 C   0  0  0  0  0  0  0  0  0  0  0  0
   -2.9126    0.4101    0.0291 C   0  0  0  0  0  0  0  0  0  0  0  0
   -2.3442   -1.9172   -0.6281 C   0  0  0  0  0  0  0  0  0  0  0  0
   -0.5550   -0.1478   -0.9323 C   0  0  1  0  0  0  0  0  0  0  0  0
   -0.9571   -0.0102   -2.2998 O   0  0  0  0  0  0  0  0  0  0  0  0
    0.2444    1.0911   -0.4883 C   0  0  0  0  0  0  0  0  0  0  0  0
    1.4366    0.9874    0.1526 C   0  0  0  0  0  0  0  0  0  0  0  0
    2.1545   -0.2455    0.4990 C   0  0  0  0  0  0  0  0  0  0  0  0
    2.2895   -0.6133    1.8427 C   0  0  0  0  0  0  0  0  0  0  0  0
    2.9902   -1.7720    2.1880 C   0  0  0  0  0  0  0  0  0  0  0  0
    3.5657   -2.5569    1.1906 C   0  0  0  0  0  0  0  0  0  0  0  0
    4.4275   -3.9832    1.6169 Cl  0  0  0  0  0  0  0  0  0  0  0  0
    3.4510   -2.1911   -0.1489 C   0  0  0  0  0  0  0  0  0  0  0  0
    2.7509   -1.0324   -0.4942 C   0  0  0  0  0  0  0  0  0  0  0  0
   -0.3076    2.3569   -0.8267 N   0  0  0  0  0  0  0  0  0  0  0  0
    0.1650    3.6158   -0.4690 C   0  0  0  0  0  0  0  0  0  0  0  0
   -0.5773    4.5767   -0.9636 N   0  0  0  0  0  0  0  0  0  0  0  0
   -1.5226    3.8925   -1.6483 C   0  0  0  0  0  0  0  0  0  0  0  0
   -1.4173    2.5664   -1.6059 N   0  0  0  0  0  0  0  0  0  0  0  0
  1  2  1  0
  2  3  1  0
  2  4  1  0
  2  5  1  0
  5  6  1  6
  5  7  1  0
  7  8  2  0
  8  9  1  0
  9 10  2  0
 10 11  1  0
 11 12  2  0
 12 13  1  0
 12 14  1  0
 14 15  2  0
  7 16  1  0
 16 17  1  0
 17 18  2  0
 18 19  1  0
 19 20  2  0
 15  9  1  0
 20 16  1  0
M  END
