
     RDKit          3D

 10 10  0  0  0  0  0  0  0  0999 V2000
   -2.3237    0.6401   -0.7231 C   0  0  0  0  0  0  0  0  0  0  0  0
   -1.5889   -0.4414    0.0609 C   0  0  1  0  0  0  0  0  0  0  0  0
   -0.0832   -0.2395    0.0789 C   0  0  0  0  0  0  0  0  0  0  0  0
    0.6900   -1.0710   -0.7587 C   0  0  0  0  0  0  0  0  0  0  0  0
    2.0793   -0.9491   -0.8275 C   0  0  0  0  0  0  0  0  0  0  0  0
    2.7299    0.0105   -0.0622 C   0  0  0  0  0  0  0  0  0  0  0  0
    1.9900    0.8465    0.7712 C   0  0  0  0  0  0  0  0  0  0  0  0
    0.5950    0.7273    0.8434 C   0  0  0  0  0  0  0  0  0  0  0  0
   -0.2858    1.9178    2.0348 Br  0  0  0  0  0  0  0  0  0  0  0  0
   -2.1604   -0.5577    1.3605 O   0  0  0  0  0  0  0  0  0  0  0  0
  2  1  1  1
  2  3  1  0
  3  4  2  0
  4  5  1  0
  5  6  2  0
  6  7  1  0
  7  8  2  0
  8  9  1  0
  2 10  1  0
  8  3  1  0
M  END
