
     RDKit          3D

 26 28  0  0  0  0  0  0  0  0999 V2000
    0.8067    2.1932   -0.0965 C   0  0  0  0  0  0  0  0  0  0  0  0
    2.3027    2.0086    0.0282 C   0  0  0  0  0  0  0  0  0  0  0  0
    3.0895    3.2107   -0.4363 C   0  0  0  0  0  0  0  0  0  0  0  0
    2.8346    0.5965   -0.1621 C   0  0  1  0  0  0  0  0  0  0  0  0
    4.0966    0.3575   -0.8799 C   0  0  0  0  0  0  0  0  0  0  0  0
    5.0404   -0.5531   -0.5961 C   0  0  0  0  0  0  0  0  0  0  0  0
    6.4469   -0.6852   -1.5894 Cl  0  0  0  0  0  0  0  0  0  0  0  0
    4.9074   -1.6313    0.7442 Cl  0  0  0  0  0  0  0  0  0  0  0  0
    2.8680    1.2352    1.2126 C   0  0  2  0  0  0  0  0  0  0  0  0
    1.9784    0.7745    2.3059 C   0  0  0  0  0  0  0  0  0  0  0  0
    1.5530    1.5480    3.1506 O   0  0  0  0  0  0  0  0  0  0  0  0
    1.7316   -0.5559    2.2284 O   0  0  0  0  0  0  0  0  0  0  0  0
    0.7725   -1.0548    3.1653 C   0  0  0  0  0  0  0  0  0  0  0  0
   -0.6033   -0.9642    2.5562 C   0  0  0  0  0  0  0  0  0  0  0  0
   -1.5375   -0.0352    3.0347 C   0  0  0  0  0  0  0  0  0  0  0  0
   -2.8037    0.0609    2.4522 C   0  0  0  0  0  0  0  0  0  0  0  0
   -3.1419   -0.7567    1.3747 C   0  0  0  0  0  0  0  0  0  0  0  0
   -2.2032   -1.6577    0.8705 C   0  0  0  0  0  0  0  0  0  0  0  0
   -2.4842   -2.4992   -0.1794 O   0  0  0  0  0  0  0  0  0  0  0  0
   -2.9487   -1.9305   -1.3451 C   0  0  0  0  0  0  0  0  0  0  0  0
   -2.4744   -0.7197   -1.8585 C   0  0  0  0  0  0  0  0  0  0  0  0
   -2.9803   -0.2297   -3.0643 C   0  0  0  0  0  0  0  0  0  0  0  0
   -3.9423   -0.9563   -3.7647 C   0  0  0  0  0  0  0  0  0  0  0  0
   -4.3960   -2.1772   -3.2646 C   0  0  0  0  0  0  0  0  0  0  0  0
   -3.8945   -2.6669   -2.0581 C   0  0  0  0  0  0  0  0  0  0  0  0
   -0.9493   -1.7799    1.4690 C   0  0  0  0  0  0  0  0  0  0  0  0
  1  2  1  0
  2  3  1  0
  2  4  1  0
  4  5  1  6
  5  6  2  3
  6  7  1  0
  6  8  1  0
  4  9  1  0
  9 10  1  1
 10 11  2  0
 10 12  1  0
 12 13  1  0
 13 14  1  0
 14 15  2  0
 15 16  1  0
 16 17  2  0
 17 18  1  0
 18 19  1  0
 19 20  1  0
 20 21  2  0
 21 22  1  0
 22 23  2  0
 23 24  1  0
 24 25  2  0
 18 26  2  0
  9  2  1  0
 26 14  1  0
 25 20  1  0
M  END
