
     RDKit          3D

 20 21  0  0  0  0  0  0  0  0999 V2000
    3.5919   -1.2776   -0.5378 C   0  0  0  0  0  0  0  0  0  0  0  0
    2.5972   -1.8301    0.4714 C   0  0  0  0  0  0  0  0  0  0  0  0
    1.4268   -0.8841    0.7599 C   0  0  0  0  0  0  0  0  0  0  0  0
    0.5180   -0.6663   -0.4542 C   0  0  0  0  0  0  0  0  0  0  0  0
   -0.7654    0.1769   -0.2003 C   0  0  1  0  0  0  0  0  0  0  0  0
   -1.4902    0.2163   -1.4630 O   0  0  0  0  0  0  0  0  0  0  0  0
   -1.7524   -0.4570    0.8134 C   0  0  0  0  0  0  0  0  0  0  0  0
   -2.3695   -1.6863    0.3504 N   0  0  0  0  0  0  0  0  0  0  0  0
   -3.5935   -1.8395   -0.2229 C   0  0  0  0  0  0  0  0  0  0  0  0
   -3.7915   -3.1081   -0.4976 N   0  0  0  0  0  0  0  0  0  0  0  0
   -2.6473   -3.7026   -0.0484 C   0  0  0  0  0  0  0  0  0  0  0  0
   -1.7409   -2.8703    0.4715 N   0  0  0  0  0  0  0  0  0  0  0  0
   -0.3736    1.6505    0.0725 C   0  0  0  0  0  0  0  0  0  0  0  0
   -0.1034    2.4696   -1.0565 C   0  0  0  0  0  0  0  0  0  0  0  0
    0.2668    3.8122   -0.9420 C   0  0  0  0  0  0  0  0  0  0  0  0
    0.3916    4.3796    0.3144 C   0  0  0  0  0  0  0  0  0  0  0  0
    0.8471    6.0298    0.4715 Cl  0  0  0  0  0  0  0  0  0  0  0  0
    0.1594    3.6117    1.4478 C   0  0  0  0  0  0  0  0  0  0  0  0
   -0.2113    2.2603    1.3345 C   0  0  0  0  0  0  0  0  0  0  0  0
   -0.3956    1.4451    2.8456 Cl  0  0  0  0  0  0  0  0  0  0  0  0
  1  2  1  0
  2  3  1  0
  3  4  1  0
  4  5  1  0
  5  6  1  6
  5  7  1  0
  7  8  1  0
  8  9  1  0
  9 10  2  0
 10 11  1  0
 11 12  2  0
  5 13  1  0
 13 14  2  0
 14 15  1  0
 15 16  2  0
 16 17  1  0
 16 18  1  0
 18 19  2  0
 19 20  1  0
 12  8  1  0
 19 13  1  0
M  END
