
     RDKit          3D

 10 10  0  0  0  0  0  0  0  0999 V2000
    3.6131   -0.4908   -0.0825 C   0  0  0  0  0  0  0  0  0  0  0  0
    2.1187   -0.3462   -0.0911 C   0  0  0  0  0  0  0  0  0  0  0  0
    1.3005   -1.3701    0.2110 C   0  0  0  0  0  0  0  0  0  0  0  0
   -0.1989   -1.2569    0.2511 C   0  0  0  0  0  0  0  0  0  0  0  0
   -0.6965    0.2032    0.2567 C   0  0  1  0  0  0  0  0  0  0  0  0
    0.0893    1.0327   -0.7704 C   0  0  0  0  0  0  0  0  0  0  0  0
    1.5894    1.0194   -0.4569 C   0  0  0  0  0  0  0  0  0  0  0  0
   -2.2060    0.3042    0.0658 C   0  0  0  0  0  0  0  0  0  0  0  0
   -3.0018    0.7206    1.0663 C   0  0  0  0  0  0  0  0  0  0  0  0
   -2.7887   -0.0649   -1.2726 C   0  0  0  0  0  0  0  0  0  0  0  0
  1  2  1  0
  2  3  2  0
  3  4  1  0
  4  5  1  0
  5  6  1  0
  6  7  1  0
  5  8  1  6
  8  9  2  0
  8 10  1  0
  7  2  1  0
M  END
