
     RDKit          3D

 24 25  0  0  0  0  0  0  0  0999 V2000
    0.5005    3.3508   -1.2169 C   0  0  0  0  0  0  0  0  0  0  0  0
   -0.0397    2.1460   -0.6709 O   0  0  0  0  0  0  0  0  0  0  0  0
   -0.7482    2.3143    0.4783 C   0  0  0  0  0  0  0  0  0  0  0  0
   -0.9545    3.4022    1.0049 O   0  0  0  0  0  0  0  0  0  0  0  0
   -1.2972    0.9842    1.0278 C   0  0  2  0  0  0  0  0  0  0  0  0
   -1.2002    0.9284    2.5550 C   0  0  0  0  0  0  0  0  0  0  0  0
   -0.8162   -0.2673    0.3651 N   0  0  0  0  0  0  0  0  0  0  0  0
    0.4887   -0.7769    0.3900 C   0  0  0  0  0  0  0  0  0  0  0  0
    0.7724   -1.8800   -0.0922 O   0  0  0  0  0  0  0  0  0  0  0  0
    1.5978    0.0535    1.0319 C   0  0  0  0  0  0  0  0  0  0  0  0
    2.8698    0.1688    0.2162 C   0  0  0  0  0  0  0  0  0  0  0  0
    2.8436    0.3192   -1.1778 C   0  0  0  0  0  0  0  0  0  0  0  0
    4.0285    0.4797   -1.8989 C   0  0  0  0  0  0  0  0  0  0  0  0
    5.2527    0.5058   -1.2352 C   0  0  0  0  0  0  0  0  0  0  0  0
    5.2933    0.3731    0.1506 C   0  0  0  0  0  0  0  0  0  0  0  0
    4.1095    0.2111    0.8729 C   0  0  0  0  0  0  0  0  0  0  0  0
   -1.8697   -1.1424   -0.0789 C   0  0  0  0  0  0  0  0  0  0  0  0
   -2.1933   -2.3163    0.6436 C   0  0  0  0  0  0  0  0  0  0  0  0
   -1.4293   -2.8010    1.8471 C   0  0  0  0  0  0  0  0  0  0  0  0
   -3.2613   -3.1185    0.2042 C   0  0  0  0  0  0  0  0  0  0  0  0
   -4.0153   -2.7629   -0.9089 C   0  0  0  0  0  0  0  0  0  0  0  0
   -3.6959   -1.6127   -1.6213 C   0  0  0  0  0  0  0  0  0  0  0  0
   -2.6169   -0.8020   -1.2326 C   0  0  0  0  0  0  0  0  0  0  0  0
   -2.2812    0.3831   -2.0960 C   0  0  0  0  0  0  0  0  0  0  0  0
  1  2  1  0
  2  3  1  0
  3  4  2  0
  3  5  1  0
  5  6  1  1
  5  7  1  0
  7  8  1  0
  8  9  2  0
  8 10  1  0
 10 11  1  0
 11 12  2  0
 12 13  1  0
 13 14  2  0
 14 15  1  0
 15 16  2  0
  7 17  1  0
 17 18  2  0
 18 19  1  0
 18 20  1  0
 20 21  2  0
 21 22  1  0
 22 23  2  0
 23 24  1  0
 16 11  1  0
 23 17  1  0
M  END
