
     RDKit          3D

 21 22  0  0  0  0  0  0  0  0999 V2000
    3.3075    0.8432    2.3516 C   0  0  0  0  0  0  0  0  0  0  0  0
    3.3968   -0.3806    1.4597 C   0  0  0  0  0  0  0  0  0  0  0  0
    2.3019   -0.3922    0.5298 O   0  0  0  0  0  0  0  0  0  0  0  0
    2.4968    0.2988   -0.6338 C   0  0  0  0  0  0  0  0  0  0  0  0
    3.5218    0.9032   -0.9206 O   0  0  0  0  0  0  0  0  0  0  0  0
    1.2638    0.1932   -1.5230 C   0  0  1  0  0  0  0  0  0  0  0  0
    1.4394    0.9431   -2.8370 C   0  0  0  0  0  0  0  0  0  0  0  0
    0.9669   -1.1671   -1.8123 O   0  0  0  0  0  0  0  0  0  0  0  0
   -0.2070   -1.5043   -1.2037 C   0  0  0  0  0  0  0  0  0  0  0  0
   -0.6046   -2.6581   -1.2405 O   0  0  0  0  0  0  0  0  0  0  0  0
   -0.7816   -0.4168   -0.6096 N   0  0  0  0  0  0  0  0  0  0  0  0
   -2.0325   -0.4064    0.0887 C   0  0  0  0  0  0  0  0  0  0  0  0
   -2.4399    0.7029    0.8513 C   0  0  0  0  0  0  0  0  0  0  0  0
   -3.6620    0.7100    1.5355 C   0  0  0  0  0  0  0  0  0  0  0  0
   -4.1107    2.0900    2.4625 Cl  0  0  0  0  0  0  0  0  0  0  0  0
   -4.5147   -0.3821    1.4816 C   0  0  0  0  0  0  0  0  0  0  0  0
   -4.1321   -1.4865    0.7354 C   0  0  0  0  0  0  0  0  0  0  0  0
   -5.1772   -2.8523    0.6485 Cl  0  0  0  0  0  0  0  0  0  0  0  0
   -2.9111   -1.5037    0.0492 C   0  0  0  0  0  0  0  0  0  0  0  0
    0.0359    0.6669   -0.8003 C   0  0  0  0  0  0  0  0  0  0  0  0
   -0.1448    1.8355   -0.4838 O   0  0  0  0  0  0  0  0  0  0  0  0
  1  2  1  0
  2  3  1  0
  3  4  1  0
  4  5  2  0
  4  6  1  0
  6  7  1  6
  6  8  1  0
  8  9  1  0
  9 10  2  0
  9 11  1  0
 11 12  1  0
 12 13  2  0
 13 14  1  0
 14 15  1  0
 14 16  2  0
 16 17  1  0
 17 18  1  0
 17 19  2  0
 11 20  1  0
 20 21  2  0
 20  6  1  0
 19 12  1  0
M  END
