
     RDKit          3D

 25 27  0  0  0  0  0  0  0  0999 V2000
   -2.8603    1.5203    0.5594 C   0  0  0  0  0  0  0  0  0  0  0  0
   -3.3719    0.7105   -0.6446 C   0  0  0  0  0  0  0  0  0  0  0  0
   -3.5841    1.7135   -1.8087 C   0  0  0  0  0  0  0  0  0  0  0  0
   -4.7570    0.1276   -0.3067 C   0  0  0  0  0  0  0  0  0  0  0  0
   -2.3403   -0.3819   -1.1036 C   0  0  2  0  0  0  0  0  0  0  0  0
   -2.8933   -1.2060   -2.1485 O   0  0  0  0  0  0  0  0  0  0  0  0
   -1.6688   -1.3145   -0.0489 C   0  0  1  0  0  0  0  0  0  0  0  0
   -0.7980   -0.5880    0.8288 O   0  0  0  0  0  0  0  0  0  0  0  0
    0.4926   -0.3508    0.4550 C   0  0  0  0  0  0  0  0  0  0  0  0
    1.0885   -0.6893   -0.7574 C   0  0  0  0  0  0  0  0  0  0  0  0
    2.4317   -0.3658   -0.9962 C   0  0  0  0  0  0  0  0  0  0  0  0
    3.2062    0.3022   -0.0347 C   0  0  0  0  0  0  0  0  0  0  0  0
    4.6152    0.6402   -0.2937 C   0  0  0  0  0  0  0  0  0  0  0  0
    5.0827    1.9569   -0.1466 C   0  0  0  0  0  0  0  0  0  0  0  0
    6.4200    2.2792   -0.3939 C   0  0  0  0  0  0  0  0  0  0  0  0
    7.3138    1.2884   -0.7916 C   0  0  0  0  0  0  0  0  0  0  0  0
    6.8719   -0.0234   -0.9423 C   0  0  0  0  0  0  0  0  0  0  0  0
    5.5340   -0.3437   -0.6958 C   0  0  0  0  0  0  0  0  0  0  0  0
    2.5916    0.6370    1.1796 C   0  0  0  0  0  0  0  0  0  0  0  0
    1.2524    0.3136    1.4190 C   0  0  0  0  0  0  0  0  0  0  0  0
   -2.6284   -2.0816    0.7508 N   0  0  0  0  0  0  0  0  0  0  0  0
   -3.3568   -3.1555    0.3234 C   0  0  0  0  0  0  0  0  0  0  0  0
   -4.0536   -3.6472    1.3215 N   0  0  0  0  0  0  0  0  0  0  0  0
   -3.7065   -2.8375    2.3640 C   0  0  0  0  0  0  0  0  0  0  0  0
   -2.8392   -1.8665    2.0708 N   0  0  0  0  0  0  0  0  0  0  0  0
  1  2  1  0
  2  3  1  0
  2  4  1  0
  2  5  1  0
  5  6  1  6
  5  7  1  0
  7  8  1  1
  8  9  1  0
  9 10  2  0
 10 11  1  0
 11 12  2  0
 12 13  1  0
 13 14  2  0
 14 15  1  0
 15 16  2  0
 16 17  1  0
 17 18  2  0
 12 19  1  0
 19 20  2  0
  7 21  1  0
 21 22  1  0
 22 23  2  0
 23 24  1  0
 24 25  2  0
 20  9  1  0
 25 21  1  0
 18 13  1  0
M  END
