
     RDKit          3D

 19 20  0  0  0  0  0  0  0  0999 V2000
    0.2462   -2.5290   -0.0229 O   0  0  0  0  0  0  0  0  0  0  0  0
    0.9677   -1.5430   -0.0133 C   0  0  0  0  0  0  0  0  0  0  0  0
    2.4869   -1.5870   -0.0103 C   0  0  2  0  0  0  0  0  0  0  0  0
    3.1040   -2.8389    1.0798 Cl  0  0  0  0  0  0  0  0  0  0  0  0
    2.8655   -0.1920    0.4735 C   0  0  1  0  0  0  0  0  0  0  0  0
    4.2837    0.2538    0.1450 C   0  0  0  0  0  0  0  0  0  0  0  0
    4.6368    0.2924   -1.5977 Cl  0  0  0  0  0  0  0  0  0  0  0  0
    1.7619    0.6676   -0.1236 C   0  0  0  0  0  0  0  0  0  0  0  0
    0.5918   -0.1834   -0.0759 N   0  0  0  0  0  0  0  0  0  0  0  0
   -0.7315    0.3227   -0.2071 C   0  0  0  0  0  0  0  0  0  0  0  0
   -0.9524    1.6786   -0.4961 C   0  0  0  0  0  0  0  0  0  0  0  0
   -2.2457    2.1936   -0.6306 C   0  0  0  0  0  0  0  0  0  0  0  0
   -3.3490    1.3615   -0.4743 C   0  0  0  0  0  0  0  0  0  0  0  0
   -3.1669    0.0069   -0.1765 C   0  0  0  0  0  0  0  0  0  0  0  0
   -4.3477   -0.9189   -0.0131 C   0  0  0  0  0  0  0  0  0  0  0  0
   -4.5183   -1.7400   -1.0852 F   0  0  0  0  0  0  0  0  0  0  0  0
   -4.2383   -1.7319    1.0737 F   0  0  0  0  0  0  0  0  0  0  0  0
   -5.5309   -0.2582    0.1398 F   0  0  0  0  0  0  0  0  0  0  0  0
   -1.8571   -0.4978   -0.0514 C   0  0  0  0  0  0  0  0  0  0  0  0
  1  2  2  0
  2  3  1  0
  3  4  1  1
  3  5  1  0
  5  6  1  6
  6  7  1  0
  5  8  1  0
  8  9  1  0
  9 10  1  0
 10 11  2  0
 11 12  1  0
 12 13  2  0
 13 14  1  0
 14 15  1  0
 15 16  1  0
 15 17  1  0
 15 18  1  0
 14 19  2  0
  9  2  1  0
 19 10  1  0
M  END
