
     RDKit          3D

 11 11  0  0  0  0  0  0  0  0999 V2000
    2.6859   -0.1856   -1.0422 C   0  0  0  0  0  0  0  0  0  0  0  0
    2.2145    0.6080    0.1709 C   0  0  2  0  0  0  0  0  0  0  0  0
    1.5946   -0.2770    1.2529 C   0  0  0  0  0  0  0  0  0  0  0  0
    0.2454   -0.8846    0.8589 C   0  0  0  0  0  0  0  0  0  0  0  0
   -0.6300    0.0412   -0.0157 C   0  0  2  0  0  0  0  0  0  0  0  0
   -0.2202    1.5101    0.1559 C   0  0  0  0  0  0  0  0  0  0  0  0
    1.2272    1.6847   -0.2542 C   0  0  0  0  0  0  0  0  0  0  0  0
    1.5955    2.6730   -0.8901 O   0  0  0  0  0  0  0  0  0  0  0  0
   -2.1111   -0.2582    0.2007 C   0  0  0  0  0  0  0  0  0  0  0  0
   -2.9741    0.5696    0.8147 C   0  0  0  0  0  0  0  0  0  0  0  0
   -2.5923   -1.5784   -0.3494 C   0  0  0  0  0  0  0  0  0  0  0  0
  2  1  1  6
  2  3  1  0
  3  4  1  0
  4  5  1  0
  5  6  1  0
  6  7  1  0
  7  8  2  0
  5  9  1  1
  9 10  2  0
  9 11  1  0
  7  2  1  0
M  END
