
     RDKit          3D

 12 12  0  0  0  0  0  0  0  0999 V2000
    3.7008    0.0650   -1.2525 C   0  0  0  0  0  0  0  0  0  0  0  0
    2.5266    0.2368   -0.3253 C   0  0  0  0  0  0  0  0  0  0  0  0
    2.6849    0.4045    0.8829 O   0  0  0  0  0  0  0  0  0  0  0  0
    1.1514    0.1688   -0.9579 C   0  0  0  0  0  0  0  0  0  0  0  0
    0.0396    0.4924    0.0355 C   0  0  2  0  0  0  0  0  0  0  0  0
   -0.2111   -0.5939    1.0782 C   0  0  0  0  0  0  0  0  0  0  0  0
   -1.7046   -0.7418    1.1045 C   0  0  0  0  0  0  0  0  0  0  0  0
   -2.3119   -1.4726    1.8723 O   0  0  0  0  0  0  0  0  0  0  0  0
   -2.2412    0.0144    0.1038 N   0  0  0  0  0  0  0  0  0  0  0  0
   -3.6410   -0.0186   -0.2448 C   0  0  0  0  0  0  0  0  0  0  0  0
   -1.2904    0.6257   -0.6589 C   0  0  0  0  0  0  0  0  0  0  0  0
   -1.4666    1.1980   -1.7240 O   0  0  0  0  0  0  0  0  0  0  0  0
  1  2  1  0
  2  3  2  0
  2  4  1  0
  5  4  1  6
  5  6  1  0
  6  7  1  0
  7  8  2  0
  7  9  1  0
  9 10  1  0
  9 11  1  0
 11 12  2  0
 11  5  1  0
M  END
