
     RDKit          3D

 13 14  0  0  0  0  0  0  0  0999 V2000
    3.7938    0.5667   -0.8677 C   0  0  0  0  0  0  0  0  0  0  0  0
    2.9270    0.9820    0.1683 O   0  0  0  0  0  0  0  0  0  0  0  0
    1.7708   -0.0408    0.6565 P   0  0  1  0  0  5  0  0  0  0  0  0
    2.3689   -1.7247    1.4079 S   0  0  0  0  0  0  0  0  0  0  0  0
    0.9176    0.9191    1.6361 O   0  0  0  0  0  0  0  0  0  0  0  0
   -0.3836    0.4630    1.9516 C   0  0  0  0  0  0  0  0  0  0  0  0
   -1.1693    0.1012    0.7219 C   0  0  0  0  0  0  0  0  0  0  0  0
   -2.5665    0.0007    0.7960 C   0  0  0  0  0  0  0  0  0  0  0  0
   -3.3148   -0.3459   -0.3312 C   0  0  0  0  0  0  0  0  0  0  0  0
   -2.6756   -0.6004   -1.5431 C   0  0  0  0  0  0  0  0  0  0  0  0
   -1.2874   -0.5148   -1.6272 C   0  0  0  0  0  0  0  0  0  0  0  0
   -0.5445   -0.1773   -0.4973 C   0  0  0  0  0  0  0  0  0  0  0  0
    0.8122   -0.1101   -0.6437 O   0  0  0  0  0  0  0  0  0  0  0  0
  1  2  1  0
  3  2  1  6
  3  4  2  0
  3  5  1  0
  5  6  1  0
  6  7  1  0
  7  8  2  0
  8  9  1  0
  9 10  2  0
 10 11  1  0
 11 12  2  0
 12 13  1  0
 13  3  1  0
 12  7  1  0
M  END
