
     RDKit          3D

 15 14  0  0  0  0  0  0  0  0999 V2000
    3.3186   -0.7857    1.0005 C   0  0  0  0  0  0  0  0  0  0  0  0
    2.6167   -0.2206   -0.2170 C   0  0  0  0  0  0  0  0  0  0  0  0
    1.2403   -0.5552   -0.1369 O   0  0  0  0  0  0  0  0  0  0  0  0
    0.1937    0.2554   -1.0607 P   0  0  0  0  0  5  0  0  0  0  0  0
    0.4719    0.1694   -2.9691 S   0  0  0  0  0  0  0  0  0  0  0  0
    0.2308    1.7349   -0.4157 O   0  0  0  0  0  0  0  0  0  0  0  0
   -0.0659    1.9152    0.9594 C   0  0  0  0  0  0  0  0  0  0  0  0
   -1.3817    2.6545    1.0905 C   0  0  0  0  0  0  0  0  0  0  0  0
   -1.2220   -0.2984   -0.5242 O   0  0  0  0  0  0  0  0  0  0  0  0
   -1.5039   -1.6844   -0.6742 C   0  0  1  0  0  0  0  0  0  0  0  0
   -1.2008   -2.4496    0.9286 Cl  0  0  0  0  0  0  0  0  0  0  0  0
   -2.9550   -1.9257   -1.1812 C   0  0  0  0  0  0  0  0  0  0  0  0
   -3.2886   -3.6819   -1.3924 Cl  0  0  0  0  0  0  0  0  0  0  0  0
   -3.1983   -1.1449   -2.7858 Cl  0  0  0  0  0  0  0  0  0  0  0  0
   -4.1870   -1.2412   -0.0616 Cl  0  0  0  0  0  0  0  0  0  0  0  0
  1  2  1  0
  2  3  1  0
  3  4  1  0
  4  5  2  0
  4  6  1  0
  6  7  1  0
  7  8  1  0
  4  9  1  0
  9 10  1  0
 10 11  1  1
 10 12  1  0
 12 13  1  0
 12 14  1  0
 12 15  1  0
M  END
