
     RDKit          3D

 15 15  0  0  0  0  0  0  0  0999 V2000
    1.1922   -0.1498    0.3019 C   0  0  0  0  0  0  0  0  0  0  0  0
    1.7850    0.0348   -0.8975 C   0  0  0  0  0  0  0  0  0  0  0  0
    1.1609    0.6568   -2.1162 C   0  0  0  0  0  0  0  0  0  0  0  0
    3.2092   -0.4195   -1.1320 C   0  0  0  0  0  0  0  0  0  0  0  0
    3.9887   -1.0683   -0.0153 C   0  0  0  0  0  0  0  0  0  0  0  0
    3.7304   -0.2576   -2.2367 O   0  0  0  0  0  0  0  0  0  0  0  0
   -0.2045    0.2088    0.7995 C   0  0  1  0  0  0  0  0  0  0  0  0
   -0.6827    1.6171    0.4507 C   0  0  0  0  0  0  0  0  0  0  0  0
    0.2992    2.7537    0.5901 C   0  0  0  0  0  0  0  0  0  0  0  0
   -1.9692    1.8735    0.1451 C   0  0  0  0  0  0  0  0  0  0  0  0
   -3.0606    0.8479    0.1720 C   0  0  0  0  0  0  0  0  0  0  0  0
   -2.6642   -0.4118    0.9433 C   0  0  0  0  0  0  0  0  0  0  0  0
   -1.2613   -0.9349    0.5492 C   0  0  0  0  0  0  0  0  0  0  0  0
   -1.3044   -1.4276   -0.9139 C   0  0  0  0  0  0  0  0  0  0  0  0
   -0.9356   -2.1573    1.4371 C   0  0  0  0  0  0  0  0  0  0  0  0
  1  2  2  0
  2  3  1  0
  2  4  1  0
  4  5  1  0
  4  6  2  0
  7  1  1  6
  7  8  1  0
  8  9  1  0
  8 10  2  0
 10 11  1  0
 11 12  1  0
 12 13  1  0
 13 14  1  0
 13 15  1  0
 13  7  1  0
M  END
