
     RDKit          3D

 11 10  0  0  0  0  0  0  0  0999 V2000
   -3.8361    0.7990    1.5067 C   0  0  0  0  0  0  0  0  0  0  0  0
   -2.6978    0.1519    0.7615 C   0  0  0  0  0  0  0  0  0  0  0  0
   -1.4466    0.1786    1.2607 C   0  0  0  0  0  0  0  0  0  0  0  0
   -0.2095   -0.4418    0.6679 C   0  0  0  0  0  0  0  0  0  0  0  0
    0.6566    0.6143   -0.0243 C   0  0  0  0  0  0  0  0  0  0  0  0
    1.9702    0.0973   -0.6537 C   0  0  2  0  0  0  0  0  0  0  0  0
    1.7194   -0.9813   -1.7104 C   0  0  0  0  0  0  0  0  0  0  0  0
    2.9409   -0.4217    0.3883 C   0  0  0  0  0  0  0  0  0  0  0  0
    4.1909    0.0089    0.6161 C   0  0  0  0  0  0  0  0  0  0  0  0
    2.5629    1.2050   -1.3431 O   0  0  0  0  0  0  0  0  0  0  0  0
   -3.0942   -0.4807   -0.5442 C   0  0  0  0  0  0  0  0  0  0  0  0
  1  2  1  0
  2  3  2  3
  3  4  1  0
  4  5  1  0
  5  6  1  0
  6  7  1  6
  6  8  1  0
  8  9  2  0
  6 10  1  0
  2 11  1  0
M  END
