
     RDKit          3D

 18 18  0  0  0  0  0  0  0  0999 V2000
   -1.5737    2.6880   -1.6432 C   0  0  0  0  0  0  0  0  0  0  0  0
   -2.1153    1.4393   -0.9785 C   0  0  0  0  0  0  0  0  0  0  0  0
   -1.7048    0.3127   -1.7346 O   0  0  0  0  0  0  0  0  0  0  0  0
   -1.7253   -1.1520   -1.0413 P   0  0  0  0  0  5  0  0  0  0  0  0
   -1.4493   -2.6389   -2.2542 S   0  0  0  0  0  0  0  0  0  0  0  0
   -3.1605   -1.1239   -0.2865 O   0  0  0  0  0  0  0  0  0  0  0  0
   -3.4951   -2.2100    0.5621 C   0  0  0  0  0  0  0  0  0  0  0  0
   -4.6654   -1.7980    1.4313 C   0  0  0  0  0  0  0  0  0  0  0  0
   -0.7031   -0.9879    0.1990 O   0  0  0  0  0  0  0  0  0  0  0  0
    0.6350   -0.7262    0.1182 C   0  0  0  0  0  0  0  0  0  0  0  0
    1.3170   -0.4384   -1.0612 C   0  0  0  0  0  0  0  0  0  0  0  0
    2.6918   -0.1782   -1.0278 C   0  0  0  0  0  0  0  0  0  0  0  0
    3.3881   -0.1919    0.1855 C   0  0  0  0  0  0  0  0  0  0  0  0
    5.1655    0.1385    0.2070 S   0  0  0  0  0  4  0  0  0  0  0  0
    5.0709    1.9213   -0.0982 C   0  0  0  0  0  0  0  0  0  0  0  0
    5.6022   -0.0449    1.6313 O   0  0  0  0  0  0  0  0  0  0  0  0
    2.6982   -0.4835    1.3648 C   0  0  0  0  0  0  0  0  0  0  0  0
    1.3267   -0.7459    1.3300 C   0  0  0  0  0  0  0  0  0  0  0  0
  1  2  1  0
  2  3  1  0
  3  4  1  0
  4  5  2  0
  4  6  1  0
  6  7  1  0
  7  8  1  0
  4  9  1  0
  9 10  1  0
 10 11  2  0
 11 12  1  0
 12 13  2  0
 13 14  1  0
 14 15  1  1
 14 16  2  0
 13 17  1  0
 17 18  2  0
 18 10  1  0
M  END
