
     RDKit          3D

 11 10  0  0  0  0  0  0  0  0999 V2000
    3.0827   -0.5223   -1.2138 C   0  0  0  0  0  0  0  0  0  0  0  0
    2.2120   -0.4130    0.0099 C   0  0  0  0  0  0  0  0  0  0  0  0
    1.3470    0.6100    0.1525 C   0  0  0  0  0  0  0  0  0  0  0  0
    0.4325    0.8665    1.3159 C   0  0  0  0  0  0  0  0  0  0  0  0
   -0.9111    0.1267    1.2831 C   0  0  0  0  0  0  0  0  0  0  0  0
   -1.9011    0.4507    0.1423 C   0  0  1  0  0  0  0  0  0  0  0  0
   -2.1227    1.9571   -0.0300 C   0  0  0  0  0  0  0  0  0  0  0  0
   -1.5020   -0.1762   -1.1785 C   0  0  0  0  0  0  0  0  0  0  0  0
   -2.0097   -1.2919   -1.7240 C   0  0  0  0  0  0  0  0  0  0  0  0
   -3.1630   -0.1030    0.5480 O   0  0  0  0  0  0  0  0  0  0  0  0
    2.3935   -1.5275    1.0034 C   0  0  0  0  0  0  0  0  0  0  0  0
  1  2  1  0
  2  3  2  3
  3  4  1  0
  4  5  1  0
  5  6  1  0
  6  7  1  6
  6  8  1  0
  8  9  2  0
  6 10  1  0
  2 11  1  0
M  END
