
     RDKit          3D

 13 14  0  0  0  0  0  0  0  0999 V2000
    3.8592    0.7492    0.1211 C   0  0  0  0  0  0  0  0  0  0  0  0
    3.0225   -0.2853    0.5974 O   0  0  0  0  0  0  0  0  0  0  0  0
    1.7306   -0.6953   -0.2881 P   0  0  1  0  0  5  0  0  0  0  0  0
    2.0851   -1.3769   -2.0679 S   0  0  0  0  0  0  0  0  0  0  0  0
    0.9789   -1.7005    0.7285 O   0  0  0  0  0  0  0  0  0  0  0  0
   -0.3789   -1.9624    0.4310 C   0  0  0  0  0  0  0  0  0  0  0  0
   -1.1676   -0.6982    0.2306 C   0  0  0  0  0  0  0  0  0  0  0  0
   -2.5677   -0.7344    0.3088 C   0  0  0  0  0  0  0  0  0  0  0  0
   -3.3204    0.4258    0.1140 C   0  0  0  0  0  0  0  0  0  0  0  0
   -2.6835    1.6333   -0.1655 C   0  0  0  0  0  0  0  0  0  0  0  0
   -1.2940    1.6805   -0.2569 C   0  0  0  0  0  0  0  0  0  0  0  0
   -0.5478    0.5181   -0.0705 C   0  0  0  0  0  0  0  0  0  0  0  0
    0.8101    0.6290   -0.1731 O   0  0  0  0  0  0  0  0  0  0  0  0
  1  2  1  0
  3  2  1  1
  3  4  2  0
  3  5  1  0
  5  6  1  0
  6  7  1  0
  7  8  2  0
  8  9  1  0
  9 10  2  0
 10 11  1  0
 11 12  2  0
 12 13  1  0
 13  3  1  0
 12  7  1  0
M  END
