
     RDKit          3D

 15 16  0  0  0  0  0  0  0  0999 V2000
   -4.2949   -0.7234    0.1265 C   0  0  0  0  0  0  0  0  0  0  0  0
   -3.0465   -0.0137   -0.0152 N   0  0  0  0  0  0  0  0  0  0  0  0
   -2.8734    1.2725    0.3980 C   0  0  0  0  0  0  0  0  0  0  0  0
   -3.7323    2.0210    0.8382 O   0  0  0  0  0  0  0  0  0  0  0  0
   -1.4153    1.6088    0.3098 C   0  0  0  0  0  0  0  0  0  0  0  0
   -0.7917    0.4387   -0.4619 C   0  0  1  0  0  0  0  0  0  0  0  0
    0.5854   -0.0169    0.0592 C   0  0  1  0  0  0  0  0  0  0  0  0
    1.2474   -1.0708   -0.8499 C   0  0  0  0  0  0  0  0  0  0  0  0
    2.6213   -1.4985   -0.3248 C   0  0  0  0  0  0  0  0  0  0  0  0
    3.5612   -0.3056   -0.1766 C   0  0  0  0  0  0  0  0  0  0  0  0
    2.9517    0.7774    0.6993 C   0  0  0  0  0  0  0  0  0  0  0  0
    1.5800    1.1386    0.1748 C   0  0  0  0  0  0  0  0  0  0  0  0
    1.2932    2.3007   -0.1036 O   0  0  0  0  0  0  0  0  0  0  0  0
   -1.8654   -0.6223   -0.3235 C   0  0  0  0  0  0  0  0  0  0  0  0
   -1.7045   -1.8225   -0.4823 O   0  0  0  0  0  0  0  0  0  0  0  0
  1  2  1  0
  2  3  1  0
  3  4  2  0
  3  5  1  0
  6  5  1  1
  6  7  1  0
  7  8  1  6
  8  9  1  0
  9 10  1  0
 10 11  1  0
 11 12  1  0
 12 13  2  0
  6 14  1  0
 14 15  2  0
 14  2  1  0
 12  7  1  0
M  END
