
     RDKit          3D

 14 14  0  0  0  0  0  0  0  0999 V2000
    0.1564    2.7288   -0.6732 C   0  0  0  0  0  0  0  0  0  0  0  0
   -0.7398    1.6200   -0.1828 C   0  0  0  0  0  0  0  0  0  0  0  0
   -1.8868    1.9133    0.4595 C   0  0  0  0  0  0  0  0  0  0  0  0
   -2.8988    0.8951    0.8885 C   0  0  0  0  0  0  0  0  0  0  0  0
   -2.6589   -0.4823    0.2705 C   0  0  0  0  0  0  0  0  0  0  0  0
   -1.1668   -0.8944    0.2921 C   0  0  0  0  0  0  0  0  0  0  0  0
   -0.3416    0.1792   -0.5110 C   0  0  2  0  0  0  0  0  0  0  0  0
    1.1559   -0.0310   -0.3696 C   0  0  0  0  0  0  0  0  0  0  0  0
    1.9486   -0.4158   -1.3824 C   0  0  0  0  0  0  0  0  0  0  0  0
    3.4191   -0.6202   -1.2784 C   0  0  0  0  0  0  0  0  0  0  0  0
    4.0358   -0.9727   -2.2831 O   0  0  0  0  0  0  0  0  0  0  0  0
    4.1147   -0.3944    0.0375 C   0  0  0  0  0  0  0  0  0  0  0  0
   -1.0398   -2.2766   -0.3846 C   0  0  0  0  0  0  0  0  0  0  0  0
   -0.6965   -1.0430    1.7584 C   0  0  0  0  0  0  0  0  0  0  0  0
  1  2  1  0
  2  3  2  0
  3  4  1  0
  4  5  1  0
  5  6  1  0
  6  7  1  0
  7  8  1  1
  8  9  2  0
  9 10  1  0
 10 11  2  0
 10 12  1  0
  6 13  1  0
  6 14  1  0
  7  2  1  0
M  END
