
     RDKit          3D

 26 28  0  0  0  0  0  0  0  0999 V2000
   -5.3773   -1.0798   -0.1231 C   0  0  0  0  0  0  0  0  0  0  0  0
   -3.9968   -1.1988   -0.7249 C   0  0  0  0  0  0  0  0  0  0  0  0
   -3.5656   -2.6328   -0.9360 C   0  0  0  0  0  0  0  0  0  0  0  0
   -3.4835   -0.1757   -1.7275 C   0  0  1  0  0  0  0  0  0  0  0  0
   -4.3343    0.9333   -2.1898 C   0  0  0  0  0  0  0  0  0  0  0  0
   -5.2622    0.8990   -3.1589 C   0  0  0  0  0  0  0  0  0  0  0  0
   -5.6214   -0.5433   -4.0402 Cl  0  0  0  0  0  0  0  0  0  0  0  0
   -6.1403    2.3306   -3.5778 Cl  0  0  0  0  0  0  0  0  0  0  0  0
   -2.9707   -0.1566   -0.2994 C   0  0  2  0  0  0  0  0  0  0  0  0
   -1.5698   -0.5408    0.0069 C   0  0  0  0  0  0  0  0  0  0  0  0
   -0.7555   -0.8183   -0.8615 O   0  0  0  0  0  0  0  0  0  0  0  0
   -1.3587   -0.5510    1.3481 O   0  0  0  0  0  0  0  0  0  0  0  0
   -0.0260   -0.8871    1.7496 C   0  0  0  0  0  0  0  0  0  0  0  0
    0.8146    0.3598    1.8464 C   0  0  0  0  0  0  0  0  0  0  0  0
    0.5370    1.3332    2.8181 C   0  0  0  0  0  0  0  0  0  0  0  0
    1.3000    2.5002    2.8909 C   0  0  0  0  0  0  0  0  0  0  0  0
    2.3530    2.7021    2.0003 C   0  0  0  0  0  0  0  0  0  0  0  0
    2.6496    1.7307    1.0460 C   0  0  0  0  0  0  0  0  0  0  0  0
    3.6827    1.9983    0.1764 O   0  0  0  0  0  0  0  0  0  0  0  0
    4.6063    0.9962   -0.0243 C   0  0  0  0  0  0  0  0  0  0  0  0
    4.9939    0.7451   -1.3426 C   0  0  0  0  0  0  0  0  0  0  0  0
    5.9448   -0.2392   -1.6123 C   0  0  0  0  0  0  0  0  0  0  0  0
    6.5173   -0.9630   -0.5636 C   0  0  0  0  0  0  0  0  0  0  0  0
    6.1467   -0.6951    0.7563 C   0  0  0  0  0  0  0  0  0  0  0  0
    5.1976    0.2918    1.0293 C   0  0  0  0  0  0  0  0  0  0  0  0
    1.8707    0.5740    0.9501 C   0  0  0  0  0  0  0  0  0  0  0  0
  1  2  1  0
  2  3  1  0
  2  4  1  0
  4  5  1  1
  5  6  2  3
  6  7  1  0
  6  8  1  0
  4  9  1  0
  9 10  1  6
 10 11  2  0
 10 12  1  0
 12 13  1  0
 13 14  1  0
 14 15  2  0
 15 16  1  0
 16 17  2  0
 17 18  1  0
 18 19  1  0
 19 20  1  0
 20 21  2  0
 21 22  1  0
 22 23  2  0
 23 24  1  0
 24 25  2  0
 18 26  2  0
  9  2  1  0
 26 14  1  0
 25 20  1  0
M  END
