
     RDKit          3D

 15 16  0  0  0  0  0  0  0  0999 V2000
    0.3402    0.9889    0.5309 C   0  0  2  0  0  0  0  0  0  0  0  0
    1.7000    1.7383    0.4498 C   0  0  0  0  0  0  0  0  0  0  0  0
    2.5746    1.2671   -0.6760 C   0  0  0  0  0  0  0  0  0  0  0  0
    2.4498    0.0319   -1.1883 C   0  0  0  0  0  0  0  0  0  0  0  0
    3.3084   -0.4776   -2.3068 C   0  0  0  0  0  0  0  0  0  0  0  0
    1.4857   -0.8933   -0.6200 C   0  0  0  0  0  0  0  0  0  0  0  0
    0.4836   -0.4960    0.1928 C   0  0  0  0  0  0  0  0  0  0  0  0
   -0.5523   -1.4574    0.8075 C   0  0  0  0  0  0  0  0  0  0  0  0
    0.0421   -2.0010    2.1259 C   0  0  0  0  0  0  0  0  0  0  0  0
   -0.8629   -2.6658   -0.1065 C   0  0  0  0  0  0  0  0  0  0  0  0
   -1.8966   -0.7525    1.1546 C   0  0  0  0  0  0  0  0  0  0  0  0
   -2.6372   -0.0698    0.0022 C   0  0  0  0  0  0  0  0  0  0  0  0
   -1.7953    0.7488   -0.9752 C   0  0  0  0  0  0  0  0  0  0  0  0
   -0.7296    1.6849   -0.3700 C   0  0  1  0  0  0  0  0  0  0  0  0
   -1.3961    2.8442    0.3831 C   0  0  0  0  0  0  0  0  0  0  0  0
  1  2  1  6
  2  3  1  0
  3  4  2  0
  4  5  1  0
  4  6  1  0
  6  7  2  0
  7  8  1  0
  8  9  1  0
  8 10  1  0
  8 11  1  0
 11 12  1  0
 12 13  1  0
 13 14  1  0
 14 15  1  1
  7  1  1  0
 14  1  1  0
M  END
