
     RDKit          3D

 25 27  0  0  0  0  0  0  0  0999 V2000
   -3.6700    0.0828    2.5898 C   0  0  0  0  0  0  0  0  0  0  0  0
   -3.3171   -0.3361    1.1421 C   0  0  0  0  0  0  0  0  0  0  0  0
   -4.6429   -0.4837    0.3759 C   0  0  0  0  0  0  0  0  0  0  0  0
   -2.6240   -1.7095    1.2030 C   0  0  0  0  0  0  0  0  0  0  0  0
   -2.3649    0.7463    0.5319 C   0  0  2  0  0  0  0  0  0  0  0  0
   -3.0174    2.0295    0.5412 O   0  0  0  0  0  0  0  0  0  0  0  0
   -1.6941    0.4327   -0.8443 C   0  0  2  0  0  0  0  0  0  0  0  0
   -0.6934    1.4341   -1.1398 O   0  0  0  0  0  0  0  0  0  0  0  0
    0.5632    1.0229   -0.7956 C   0  0  0  0  0  0  0  0  0  0  0  0
    1.2568    0.1102   -1.5850 C   0  0  0  0  0  0  0  0  0  0  0  0
    2.5500   -0.2739   -1.2197 C   0  0  0  0  0  0  0  0  0  0  0  0
    3.1714    0.2623   -0.0779 C   0  0  0  0  0  0  0  0  0  0  0  0
    4.5349   -0.1424    0.3024 C   0  0  0  0  0  0  0  0  0  0  0  0
    5.5434    0.8140    0.5076 C   0  0  0  0  0  0  0  0  0  0  0  0
    6.8381    0.4307    0.8682 C   0  0  0  0  0  0  0  0  0  0  0  0
    7.1462   -0.9174    1.0309 C   0  0  0  0  0  0  0  0  0  0  0  0
    6.1617   -1.8819    0.8326 C   0  0  0  0  0  0  0  0  0  0  0  0
    4.8678   -1.4970    0.4708 C   0  0  0  0  0  0  0  0  0  0  0  0
    2.4586    1.2070    0.6810 C   0  0  0  0  0  0  0  0  0  0  0  0
    1.1658    1.5939    0.3196 C   0  0  0  0  0  0  0  0  0  0  0  0
   -2.6122    0.4328   -1.9744 N   0  0  0  0  0  0  0  0  0  0  0  0
   -2.6434   -0.4566   -3.0051 C   0  0  0  0  0  0  0  0  0  0  0  0
   -3.5993   -0.1277   -3.8422 N   0  0  0  0  0  0  0  0  0  0  0  0
   -4.1231    1.0040   -3.2854 C   0  0  0  0  0  0  0  0  0  0  0  0
   -3.5612    1.3860   -2.1346 N   0  0  0  0  0  0  0  0  0  0  0  0
  1  2  1  0
  2  3  1  0
  2  4  1  0
  2  5  1  0
  5  6  1  6
  5  7  1  0
  7  8  1  6
  8  9  1  0
  9 10  2  0
 10 11  1  0
 11 12  2  0
 12 13  1  0
 13 14  2  0
 14 15  1  0
 15 16  2  0
 16 17  1  0
 17 18  2  0
 12 19  1  0
 19 20  2  0
  7 21  1  0
 21 22  1  0
 22 23  2  0
 23 24  1  0
 24 25  2  0
 20  9  1  0
 25 21  1  0
 18 13  1  0
M  END
