
     RDKit          3D

 11 10  0  0  0  0  0  0  0  0999 V2000
    2.5430   -1.3171   -0.6700 C   0  0  0  0  0  0  0  0  0  0  0  0
    2.6996    0.0316   -0.0228 C   0  0  0  0  0  0  0  0  0  0  0  0
    1.7432    0.6659    0.6831 C   0  0  0  0  0  0  0  0  0  0  0  0
    0.3646    0.1600    1.0145 C   0  0  0  0  0  0  0  0  0  0  0  0
   -0.6859    0.7733    0.0845 C   0  0  0  0  0  0  0  0  0  0  0  0
   -2.1447    0.3377    0.3470 C   0  0  2  0  0  0  0  0  0  0  0  0
   -2.6184    0.7064    1.7568 C   0  0  0  0  0  0  0  0  0  0  0  0
   -2.3407   -1.1461    0.1149 C   0  0  0  0  0  0  0  0  0  0  0  0
   -3.0676   -1.7126   -0.8595 C   0  0  0  0  0  0  0  0  0  0  0  0
   -2.9717    1.0583   -0.5763 O   0  0  0  0  0  0  0  0  0  0  0  0
    4.0481    0.6684   -0.2358 C   0  0  0  0  0  0  0  0  0  0  0  0
  1  2  1  0
  2  3  2  3
  3  4  1  0
  4  5  1  0
  5  6  1  0
  6  7  1  1
  6  8  1  0
  8  9  2  0
  6 10  1  0
  2 11  1  0
M  END
