
     RDKit          3D

 26 27  0  0  0  0  0  0  0  0999 V2000
    3.3617   -3.8897   -1.6033 N   0  0  0  0  0  0  0  0  0  0  0  0
    2.8178   -2.9605   -1.1658 C   0  0  0  0  0  0  0  0  0  0  0  0
    2.1097   -1.8279   -0.6374 C   0  0  0  0  0  0  0  0  0  0  0  0
    0.7903   -1.7495   -0.8515 N   0  0  0  0  0  0  0  0  0  0  0  0
    0.3996   -0.6294   -0.1984 N   0  0  0  0  0  0  0  0  0  0  0  0
   -0.9721   -0.2987   -0.1384 C   0  0  0  0  0  0  0  0  0  0  0  0
   -1.7093   -0.1576   -1.3249 C   0  0  0  0  0  0  0  0  0  0  0  0
   -0.9991   -0.2166   -2.9023 Cl  0  0  0  0  0  0  0  0  0  0  0  0
   -3.0759    0.1455   -1.2696 C   0  0  0  0  0  0  0  0  0  0  0  0
   -3.7297    0.3005   -0.0399 C   0  0  0  0  0  0  0  0  0  0  0  0
   -5.1976    0.6504    0.0153 C   0  0  0  0  0  0  0  0  0  0  0  0
   -5.3966    1.9945    0.0730 F   0  0  0  0  0  0  0  0  0  0  0  0
   -5.8925    0.2099   -1.0677 F   0  0  0  0  0  0  0  0  0  0  0  0
   -5.8246    0.1281    1.1038 F   0  0  0  0  0  0  0  0  0  0  0  0
   -2.9853    0.1587    1.1397 C   0  0  0  0  0  0  0  0  0  0  0  0
   -1.6187   -0.1477    1.0975 C   0  0  0  0  0  0  0  0  0  0  0  0
   -0.8511   -0.4284    2.6223 Cl  0  0  0  0  0  0  0  0  0  0  0  0
    1.4847    0.0648    0.3499 C   0  0  0  0  0  0  0  0  0  0  0  0
    1.3753    1.2742    0.9580 N   0  0  0  0  0  0  0  0  0  0  0  0
    2.5849   -0.7279    0.0967 C   0  0  0  0  0  0  0  0  0  0  0  0
    4.2619   -0.4244    0.6251 S   0  0  0  0  0  4  0  0  0  0  0  0
    5.1052   -1.5208    0.0420 O   0  0  0  0  0  0  0  0  0  0  0  0
    4.5403    1.1258   -0.2678 C   0  0  0  0  0  0  0  0  0  0  0  0
    5.8507    1.4805   -0.2713 F   0  0  0  0  0  0  0  0  0  0  0  0
    3.8708    2.1596    0.3156 F   0  0  0  0  0  0  0  0  0  0  0  0
    4.1361    1.0731   -1.5618 F   0  0  0  0  0  0  0  0  0  0  0  0
  1  2  3  0
  2  3  1  0
  3  4  2  0
  4  5  1  0
  5  6  1  0
  6  7  2  0
  7  8  1  0
  7  9  1  0
  9 10  2  0
 10 11  1  0
 11 12  1  0
 11 13  1  0
 11 14  1  0
 10 15  1  0
 15 16  2  0
 16 17  1  0
  5 18  1  0
 18 19  1  0
 18 20  2  0
 20 21  1  0
 21 22  2  0
 21 23  1  6
 23 24  1  0
 23 25  1  0
 23 26  1  0
 20  3  1  0
 16  6  1  0
M  END
