
     RDKit          3D

 20 21  0  0  0  0  0  0  0  0999 V2000
    4.2206   -0.6173   -1.1782 C   0  0  0  0  0  0  0  0  0  0  0  0
    3.2152    0.0409   -0.2467 C   0  0  0  0  0  0  0  0  0  0  0  0
    1.7788   -0.1810   -0.7250 C   0  0  0  0  0  0  0  0  0  0  0  0
    0.7713    0.4973    0.2211 C   0  0  0  0  0  0  0  0  0  0  0  0
   -0.7262    0.2858   -0.1666 C   0  0  2  0  0  0  0  0  0  0  0  0
   -0.8316    0.7417   -1.5216 O   0  0  0  0  0  0  0  0  0  0  0  0
   -1.6552    1.1090    0.7738 C   0  0  0  0  0  0  0  0  0  0  0  0
   -1.3331    2.5184    0.8565 N   0  0  0  0  0  0  0  0  0  0  0  0
   -1.1235    3.2649    1.9720 C   0  0  0  0  0  0  0  0  0  0  0  0
   -0.8540    4.5018    1.6242 N   0  0  0  0  0  0  0  0  0  0  0  0
   -0.9240    4.4631    0.2607 C   0  0  0  0  0  0  0  0  0  0  0  0
   -1.2082    3.2647   -0.2593 N   0  0  0  0  0  0  0  0  0  0  0  0
   -1.2135   -1.1810   -0.1108 C   0  0  0  0  0  0  0  0  0  0  0  0
   -0.5479   -2.1220    0.7080 C   0  0  0  0  0  0  0  0  0  0  0  0
   -0.9623   -3.4559    0.7905 C   0  0  0  0  0  0  0  0  0  0  0  0
   -2.0674   -3.8822    0.0690 C   0  0  0  0  0  0  0  0  0  0  0  0
   -2.5790   -5.5203    0.1729 Cl  0  0  0  0  0  0  0  0  0  0  0  0
   -2.7701   -2.9834   -0.7209 C   0  0  0  0  0  0  0  0  0  0  0  0
   -2.3585   -1.6447   -0.8046 C   0  0  0  0  0  0  0  0  0  0  0  0
   -3.3847   -0.6216   -1.7552 Cl  0  0  0  0  0  0  0  0  0  0  0  0
  1  2  1  0
  2  3  1  0
  3  4  1  0
  4  5  1  0
  5  6  1  6
  5  7  1  0
  7  8  1  0
  8  9  1  0
  9 10  2  0
 10 11  1  0
 11 12  2  0
  5 13  1  0
 13 14  2  0
 14 15  1  0
 15 16  2  0
 16 17  1  0
 16 18  1  0
 18 19  2  0
 19 20  1  0
 12  8  1  0
 19 13  1  0
M  END
