
     RDKit          3D

 24 26  0  0  0  0  0  0  0  0999 V2000
   -5.5459   -2.2205   -0.3379 C   0  0  0  0  0  0  0  0  0  0  0  0
   -5.0220   -0.8213   -0.1579 C   0  0  0  0  0  0  0  0  0  0  0  0
   -5.6774   -0.0377    0.9455 C   0  0  0  0  0  0  0  0  0  0  0  0
   -4.0438   -0.3363   -0.9481 C   0  0  0  0  0  0  0  0  0  0  0  0
   -3.4553    1.0107   -0.9110 C   0  0  2  0  0  0  0  0  0  0  0  0
   -2.0236    1.2755   -1.3302 C   0  0  2  0  0  0  0  0  0  0  0  0
   -1.1074    0.2240   -1.8262 C   0  0  0  0  0  0  0  0  0  0  0  0
   -1.3941   -0.5168   -2.7545 O   0  0  0  0  0  0  0  0  0  0  0  0
    0.0823    0.2526   -1.1751 O   0  0  0  0  0  0  0  0  0  0  0  0
    0.9770   -0.7586   -1.6290 C   0  0  0  0  0  0  0  0  0  0  0  0
    2.2024   -0.6240   -0.8917 N   0  0  0  0  0  0  0  0  0  0  0  0
    3.2546    0.1352   -1.2872 C   0  0  0  0  0  0  0  0  0  0  0  0
    3.3854    0.7965   -2.2994 O   0  0  0  0  0  0  0  0  0  0  0  0
    4.2680    0.0183   -0.2364 C   0  0  0  0  0  0  0  0  0  0  0  0
    3.7746   -0.7618    0.7278 C   0  0  0  0  0  0  0  0  0  0  0  0
    4.4951   -1.1434    1.9655 C   0  0  0  0  0  0  0  0  0  0  0  0
    5.9938   -0.8110    1.8419 C   0  0  0  0  0  0  0  0  0  0  0  0
    6.2371    0.5576    1.1833 C   0  0  0  0  0  0  0  0  0  0  0  0
    5.6034    0.6598   -0.2165 C   0  0  0  0  0  0  0  0  0  0  0  0
    2.4319   -1.1858    0.3227 C   0  0  0  0  0  0  0  0  0  0  0  0
    1.7077   -1.9062    0.9838 O   0  0  0  0  0  0  0  0  0  0  0  0
   -2.4187    1.3817    0.1382 C   0  0  0  0  0  0  0  0  0  0  0  0
   -1.9334    0.3436    1.1265 C   0  0  0  0  0  0  0  0  0  0  0  0
   -2.5050    2.7670    0.7316 C   0  0  0  0  0  0  0  0  0  0  0  0
  1  2  1  0
  2  3  1  0
  2  4  2  3
  5  4  1  1
  5  6  1  0
  6  7  1  1
  7  8  2  0
  7  9  1  0
  9 10  1  0
 10 11  1  0
 11 12  1  0
 12 13  2  0
 12 14  1  0
 14 15  2  0
 15 16  1  0
 16 17  1  0
 17 18  1  0
 18 19  1  0
 15 20  1  0
 20 21  2  0
  6 22  1  0
 22 23  1  0
 22 24  1  0
 22  5  1  0
 20 11  1  0
 19 14  1  0
M  END
