
     RDKit          3D

 18 19  0  0  0  0  0  0  0  0999 V2000
    1.2833    1.5875   -0.0825 O   0  0  0  0  0  0  0  0  0  0  0  0
    0.8757    0.4413    0.0451 C   0  0  0  0  0  0  0  0  0  0  0  0
    1.6718   -0.5547    0.5379 O   0  0  0  0  0  0  0  0  0  0  0  0
    3.0488   -0.3075    0.9250 C   0  0  0  0  0  0  0  0  0  0  0  0
    3.5629   -1.6730    1.4078 C   0  0  0  0  0  0  0  0  0  0  0  0
    3.1330    0.6838    2.0907 C   0  0  0  0  0  0  0  0  0  0  0  0
    3.8963    0.1357   -0.2725 C   0  0  0  0  0  0  0  0  0  0  0  0
   -0.4164   -0.0314   -0.2530 N   0  0  0  0  0  0  0  0  0  0  0  0
   -0.7210   -1.4291    0.0621 C   0  0  0  0  0  0  0  0  0  0  0  0
   -1.9565   -1.9764   -0.6180 C   0  0  0  0  0  0  0  0  0  0  0  0
   -3.1328   -1.0839   -0.2894 C   0  0  2  0  0  0  0  0  0  0  0  0
   -4.2862   -1.5903   -0.9602 O   0  0  0  0  0  0  0  0  0  0  0  0
   -2.8256    0.3304   -0.7157 C   0  0  0  0  0  0  0  0  0  0  0  0
   -3.8870    1.1783   -1.0937 C   0  0  0  0  0  0  0  0  0  0  0  0
   -3.6527    2.4929   -1.4784 C   0  0  0  0  0  0  0  0  0  0  0  0
   -2.3537    2.9761   -1.4856 C   0  0  0  0  0  0  0  0  0  0  0  0
   -1.2927    2.1504   -1.0955 C   0  0  0  0  0  0  0  0  0  0  0  0
   -1.4985    0.8228   -0.6854 C   0  0  0  0  0  0  0  0  0  0  0  0
  1  2  2  0
  2  3  1  0
  3  4  1  0
  4  5  1  0
  4  6  1  0
  4  7  1  0
  2  8  1  0
  8  9  1  0
  9 10  1  0
 10 11  1  0
 11 12  1  6
 11 13  1  0
 13 14  2  0
 14 15  1  0
 15 16  2  0
 16 17  1  0
 17 18  2  0
 18  8  1  0
 18 13  1  0
M  END
