
     RDKit          3D

 23 24  0  0  0  0  0  0  0  0999 V2000
    1.9554   -3.5867    0.9175 F   0  0  0  0  0  0  0  0  0  0  0  0
    3.0089   -2.8500    1.3618 C   0  0  0  0  0  0  0  0  0  0  0  0
    3.9561   -2.9176    0.3876 F   0  0  0  0  0  0  0  0  0  0  0  0
    2.6037   -1.3965    1.6445 C   0  0  0  0  0  0  0  0  0  0  0  0
    3.6606   -0.7396    2.2004 F   0  0  0  0  0  0  0  0  0  0  0  0
    1.6150   -1.3471    2.5784 F   0  0  0  0  0  0  0  0  0  0  0  0
    2.1937   -0.6106    0.5300 O   0  0  0  0  0  0  0  0  0  0  0  0
    0.9946   -1.0832   -0.0843 C   0  0  0  0  0  0  0  0  0  0  0  0
    0.4753    0.0039   -1.0547 C   0  0  1  0  0  0  0  0  0  0  0  0
   -0.6472   -0.5311   -1.9649 C   0  0  0  0  0  0  0  0  0  0  0  0
   -1.8569   -0.9108   -1.2707 N   0  0  0  0  0  0  0  0  0  0  0  0
   -3.0203   -0.2145   -1.1737 C   0  0  0  0  0  0  0  0  0  0  0  0
   -3.8860   -0.9077   -0.4709 N   0  0  0  0  0  0  0  0  0  0  0  0
   -3.1959   -2.0465   -0.1689 C   0  0  0  0  0  0  0  0  0  0  0  0
   -1.9444   -2.0929   -0.6348 N   0  0  0  0  0  0  0  0  0  0  0  0
    0.0792    1.3322   -0.3991 C   0  0  0  0  0  0  0  0  0  0  0  0
   -0.4911    1.3602    0.8882 C   0  0  0  0  0  0  0  0  0  0  0  0
   -0.8677    2.5657    1.4874 C   0  0  0  0  0  0  0  0  0  0  0  0
   -0.6860    3.7645    0.8085 C   0  0  0  0  0  0  0  0  0  0  0  0
   -1.1521    5.2459    1.5471 Cl  0  0  0  0  0  0  0  0  0  0  0  0
   -0.1384    3.7702   -0.4685 C   0  0  0  0  0  0  0  0  0  0  0  0
    0.2369    2.5644   -1.0698 C   0  0  0  0  0  0  0  0  0  0  0  0
    0.8738    2.6626   -2.6760 Cl  0  0  0  0  0  0  0  0  0  0  0  0
  1  2  1  0
  2  3  1  0
  2  4  1  0
  4  5  1  0
  4  6  1  0
  4  7  1  0
  7  8  1  0
  9  8  1  1
  9 10  1  0
 10 11  1  0
 11 12  1  0
 12 13  2  0
 13 14  1  0
 14 15  2  0
  9 16  1  0
 16 17  2  0
 17 18  1  0
 18 19  2  0
 19 20  1  0
 19 21  1  0
 21 22  2  0
 22 23  1  0
 15 11  1  0
 22 16  1  0
M  END
