
     RDKit          3D

 11 11  0  0  0  0  0  0  0  0999 V2000
   -3.7306   -0.0471    0.0172 C   0  0  0  0  0  0  0  0  0  0  0  0
   -2.2377   -0.0708   -0.0688 C   0  0  0  0  0  0  0  0  0  0  0  0
   -1.5164    0.7485   -0.8513 C   0  0  0  0  0  0  0  0  0  0  0  0
   -0.0159    0.7687   -0.9136 C   0  0  0  0  0  0  0  0  0  0  0  0
    0.6413    0.0838    0.3004 C   0  0  1  0  0  0  0  0  0  0  0  0
   -0.0380   -1.2685    0.5528 C   0  0  0  0  0  0  0  0  0  0  0  0
   -1.5282   -1.0980    0.7535 C   0  0  0  0  0  0  0  0  0  0  0  0
   -2.1599   -1.8259    1.5174 O   0  0  0  0  0  0  0  0  0  0  0  0
    2.1616    0.0305    0.1457 C   0  0  0  0  0  0  0  0  0  0  0  0
    2.8685   -1.0898   -0.0848 C   0  0  0  0  0  0  0  0  0  0  0  0
    2.8779    1.3494    0.3048 C   0  0  0  0  0  0  0  0  0  0  0  0
  1  2  1  0
  2  3  2  0
  3  4  1  0
  4  5  1  0
  5  6  1  0
  6  7  1  0
  7  8  2  0
  5  9  1  6
  9 10  2  0
  9 11  1  0
  7  2  1  0
M  END
