
     RDKit          3D

 13 14  0  0  0  0  0  0  0  0999 V2000
    4.0110    0.3348   -0.8030 C   0  0  0  0  0  0  0  0  0  0  0  0
    2.7106    0.8293   -1.0510 O   0  0  0  0  0  0  0  0  0  0  0  0
    1.6171    0.7459    0.1400 P   0  0  2  0  0  5  0  0  0  0  0  0
    2.0302    1.7230    1.7625 S   0  0  0  0  0  0  0  0  0  0  0  0
    1.4198   -0.8518    0.2834 O   0  0  0  0  0  0  0  0  0  0  0  0
    0.2482   -1.2580    0.9659 C   0  0  0  0  0  0  0  0  0  0  0  0
   -0.9859   -0.6067    0.4078 C   0  0  0  0  0  0  0  0  0  0  0  0
   -2.2462   -1.1608    0.6774 C   0  0  0  0  0  0  0  0  0  0  0  0
   -3.4062   -0.5634    0.1791 C   0  0  0  0  0  0  0  0  0  0  0  0
   -3.3204    0.5961   -0.5892 C   0  0  0  0  0  0  0  0  0  0  0  0
   -2.0754    1.1625   -0.8545 C   0  0  0  0  0  0  0  0  0  0  0  0
   -0.9215    0.5675   -0.3477 C   0  0  0  0  0  0  0  0  0  0  0  0
    0.2683    1.1705   -0.6426 O   0  0  0  0  0  0  0  0  0  0  0  0
  1  2  1  0
  3  2  1  6
  3  4  2  0
  3  5  1  0
  5  6  1  0
  6  7  1  0
  7  8  2  0
  8  9  1  0
  9 10  2  0
 10 11  1  0
 11 12  2  0
 12 13  1  0
 13  3  1  0
 12  7  1  0
M  END
