
     RDKit          3D

 23 24  0  0  0  0  0  0  0  0999 V2000
    3.5936    1.3540    1.7246 F   0  0  0  0  0  0  0  0  0  0  0  0
    4.2925    0.6502    0.7926 C   0  0  0  0  0  0  0  0  0  0  0  0
    4.9258    1.5676    0.0135 F   0  0  0  0  0  0  0  0  0  0  0  0
    3.3668   -0.2458   -0.0351 C   0  0  0  0  0  0  0  0  0  0  0  0
    2.7574   -1.1577    0.7671 F   0  0  0  0  0  0  0  0  0  0  0  0
    4.0885   -0.9571   -0.9421 F   0  0  0  0  0  0  0  0  0  0  0  0
    2.3658    0.4765   -0.7454 O   0  0  0  0  0  0  0  0  0  0  0  0
    1.4303   -0.3645   -1.4181 C   0  0  0  0  0  0  0  0  0  0  0  0
    0.1651   -0.6066   -0.5663 C   0  0  2  0  0  0  0  0  0  0  0  0
   -0.8058   -1.5537   -1.2940 C   0  0  0  0  0  0  0  0  0  0  0  0
   -1.8962   -1.9952   -0.4501 N   0  0  0  0  0  0  0  0  0  0  0  0
   -3.1941   -1.5940   -0.4805 C   0  0  0  0  0  0  0  0  0  0  0  0
   -3.8709   -2.2376    0.4426 N   0  0  0  0  0  0  0  0  0  0  0  0
   -2.9234   -3.0365    1.0170 C   0  0  0  0  0  0  0  0  0  0  0  0
   -1.6956   -2.9241    0.5020 N   0  0  0  0  0  0  0  0  0  0  0  0
   -0.4832    0.6876   -0.0650 C   0  0  0  0  0  0  0  0  0  0  0  0
   -0.5080    0.8875    1.3325 C   0  0  0  0  0  0  0  0  0  0  0  0
   -1.0699    2.0353    1.8950 C   0  0  0  0  0  0  0  0  0  0  0  0
   -1.6191    3.0071    1.0695 C   0  0  0  0  0  0  0  0  0  0  0  0
   -2.3128    4.4229    1.7567 Cl  0  0  0  0  0  0  0  0  0  0  0  0
   -1.6140    2.8385   -0.3107 C   0  0  0  0  0  0  0  0  0  0  0  0
   -1.0518    1.6875   -0.8768 C   0  0  0  0  0  0  0  0  0  0  0  0
   -1.1257    1.5758   -2.5985 Cl  0  0  0  0  0  0  0  0  0  0  0  0
  1  2  1  0
  2  3  1  0
  2  4  1  0
  4  5  1  0
  4  6  1  0
  4  7  1  0
  7  8  1  0
  9  8  1  6
  9 10  1  0
 10 11  1  0
 11 12  1  0
 12 13  2  0
 13 14  1  0
 14 15  2  0
  9 16  1  0
 16 17  2  0
 17 18  1  0
 18 19  2  0
 19 20  1  0
 19 21  1  0
 21 22  2  0
 22 23  1  0
 15 11  1  0
 22 16  1  0
M  END
