
     RDKit          3D

 22 24  0  0  0  0  0  0  0  0999 V2000
   -2.1927   -1.3871    0.0594 C   0  0  0  0  0  0  0  0  0  0  0  0
   -1.5256   -0.4808   -0.9932 C   0  0  0  0  0  0  0  0  0  0  0  0
   -2.6057   -0.1113   -2.0302 C   0  0  0  0  0  0  0  0  0  0  0  0
   -0.4083   -1.2978   -1.7055 C   0  0  0  0  0  0  0  0  0  0  0  0
    0.8391   -0.4275   -1.6946 C   0  0  0  0  0  0  0  0  0  0  0  0
    0.7301    0.3815   -0.3956 C   0  0  2  0  0  0  0  0  0  0  0  0
    1.2201   -0.4038    0.8386 C   0  0  0  0  0  0  0  0  0  0  0  0
    2.7020   -0.7089    0.8199 C   0  0  0  0  0  0  0  0  0  0  0  0
    3.6442    0.3227    0.9442 C   0  0  0  0  0  0  0  0  0  0  0  0
    5.0118    0.0392    0.9289 C   0  0  0  0  0  0  0  0  0  0  0  0
    5.4443   -1.2774    0.7919 C   0  0  0  0  0  0  0  0  0  0  0  0
    7.1289   -1.6270    0.7739 Cl  0  0  0  0  0  0  0  0  0  0  0  0
    4.5211   -2.3131    0.6703 C   0  0  0  0  0  0  0  0  0  0  0  0
    3.1534   -2.0299    0.6855 C   0  0  0  0  0  0  0  0  0  0  0  0
   -0.7815    0.7777   -0.3952 C   0  0  1  0  0  0  0  0  0  0  0  0
   -0.8362    1.8656   -1.3488 O   0  0  0  0  0  0  0  0  0  0  0  0
   -1.2567    1.3097    0.9777 C   0  0  0  0  0  0  0  0  0  0  0  0
   -2.6149    1.8150    1.0107 N   0  0  0  0  0  0  0  0  0  0  0  0
   -3.5776    1.5591    1.9363 C   0  0  0  0  0  0  0  0  0  0  0  0
   -4.6598    2.2416    1.6430 N   0  0  0  0  0  0  0  0  0  0  0  0
   -4.2965    2.9298    0.5213 C   0  0  0  0  0  0  0  0  0  0  0  0
   -3.0492    2.7058    0.0960 N   0  0  0  0  0  0  0  0  0  0  0  0
  1  2  1  0
  2  3  1  0
  2  4  1  0
  4  5  1  0
  5  6  1  0
  6  7  1  1
  7  8  1  0
  8  9  2  0
  9 10  1  0
 10 11  2  0
 11 12  1  0
 11 13  1  0
 13 14  2  0
  6 15  1  0
 15 16  1  6
 15 17  1  0
 17 18  1  0
 18 19  1  0
 19 20  2  0
 20 21  1  0
 21 22  2  0
 15  2  1  0
 22 18  1  0
 14  8  1  0
M  END
