
     RDKit          3D

 14 14  0  0  0  0  0  0  0  0999 V2000
   -2.4001   -1.5438    2.0470 C   0  0  0  0  0  0  0  0  0  0  0  0
   -2.5271   -1.1469    0.5901 C   0  0  0  0  0  0  0  0  0  0  0  0
   -1.6665   -0.0440    0.3461 O   0  0  0  0  0  0  0  0  0  0  0  0
   -1.4221    0.4479   -1.1903 P   0  0  1  0  0  5  0  0  0  0  0  0
   -3.0883    0.9129   -2.1125 S   0  0  0  0  0  0  0  0  0  0  0  0
   -0.3812    1.9171   -0.8633 C   0  0  0  0  0  0  0  0  0  0  0  0
   -1.0693    3.0299   -0.0917 C   0  0  0  0  0  0  0  0  0  0  0  0
   -0.1717   -0.9845   -2.1446 S   0  0  0  0  0  0  0  0  0  0  0  0
    1.2743   -0.8774   -1.1226 C   0  0  0  0  0  0  0  0  0  0  0  0
    1.3088   -1.4633    0.1451 C   0  0  0  0  0  0  0  0  0  0  0  0
    2.4579   -1.3718    0.9333 C   0  0  0  0  0  0  0  0  0  0  0  0
    3.5840   -0.7071    0.4515 C   0  0  0  0  0  0  0  0  0  0  0  0
    3.5654   -0.1410   -0.8216 C   0  0  0  0  0  0  0  0  0  0  0  0
    2.4160   -0.2315   -1.6093 C   0  0  0  0  0  0  0  0  0  0  0  0
  1  2  1  0
  2  3  1  0
  3  4  1  0
  4  5  2  0
  4  6  1  1
  6  7  1  0
  4  8  1  0
  8  9  1  0
  9 10  2  0
 10 11  1  0
 11 12  2  0
 12 13  1  0
 13 14  2  0
 14  9  1  0
M  END
