
     RDKit          3D

 24 26  0  0  0  0  0  0  0  0999 V2000
    5.6109   -1.1508   -1.4993 C   0  0  0  0  0  0  0  0  0  0  0  0
    4.8421   -1.5711   -0.2778 C   0  0  0  0  0  0  0  0  0  0  0  0
    5.5854   -2.4884    0.6541 C   0  0  0  0  0  0  0  0  0  0  0  0
    3.5828   -1.1729   -0.0120 C   0  0  0  0  0  0  0  0  0  0  0  0
    2.7413   -0.2860   -0.8287 C   0  0  1  0  0  0  0  0  0  0  0  0
    1.6952    0.5697   -0.1425 C   0  0  2  0  0  0  0  0  0  0  0  0
    0.3501    0.7431   -0.7390 C   0  0  0  0  0  0  0  0  0  0  0  0
   -0.0801    0.0236   -1.6270 O   0  0  0  0  0  0  0  0  0  0  0  0
   -0.2972    1.7874   -0.1696 O   0  0  0  0  0  0  0  0  0  0  0  0
   -1.6003    2.0463   -0.6965 C   0  0  0  0  0  0  0  0  0  0  0  0
   -2.5693    1.1523   -0.1247 N   0  0  0  0  0  0  0  0  0  0  0  0
   -3.5484    0.5518   -0.8512 C   0  0  0  0  0  0  0  0  0  0  0  0
   -3.7605    0.6073   -2.0479 O   0  0  0  0  0  0  0  0  0  0  0  0
   -4.4065   -0.1477    0.1065 C   0  0  0  0  0  0  0  0  0  0  0  0
   -3.9812    0.1549    1.3346 C   0  0  0  0  0  0  0  0  0  0  0  0
   -4.6146   -0.3049    2.5921 C   0  0  0  0  0  0  0  0  0  0  0  0
   -6.0028   -0.9090    2.3116 C   0  0  0  0  0  0  0  0  0  0  0  0
   -6.0172   -1.7873    1.0493 C   0  0  0  0  0  0  0  0  0  0  0  0
   -5.5616   -1.0206   -0.2058 C   0  0  0  0  0  0  0  0  0  0  0  0
   -2.8372    1.0596    1.2035 C   0  0  0  0  0  0  0  0  0  0  0  0
   -2.2962    1.6198    2.1389 O   0  0  0  0  0  0  0  0  0  0  0  0
    2.9193    1.2222   -0.7718 C   0  0  0  0  0  0  0  0  0  0  0  0
    2.7804    1.9740   -2.0739 C   0  0  0  0  0  0  0  0  0  0  0  0
    3.9208    1.8464    0.1707 C   0  0  0  0  0  0  0  0  0  0  0  0
  1  2  1  0
  2  3  1  0
  2  4  2  3
  5  4  1  1
  5  6  1  0
  6  7  1  6
  7  8  2  0
  7  9  1  0
  9 10  1  0
 10 11  1  0
 11 12  1  0
 12 13  2  0
 12 14  1  0
 14 15  2  0
 15 16  1  0
 16 17  1  0
 17 18  1  0
 18 19  1  0
 15 20  1  0
 20 21  2  0
  6 22  1  0
 22 23  1  0
 22 24  1  0
 22  5  1  0
 20 11  1  0
 19 14  1  0
M  END
