
     RDKit          3D

 11 10  0  0  0  0  0  0  0  0999 V2000
    1.7447   -0.5691   -1.7145 C   0  0  0  0  0  0  0  0  0  0  0  0
    1.2872    0.0276   -0.3804 C   0  0  2  0  0  0  0  0  0  0  0  0
    0.1688    1.0769   -0.5802 C   0  0  0  0  0  0  0  0  0  0  0  0
   -1.1235    0.5698   -1.2321 C   0  0  0  0  0  0  0  0  0  0  0  0
   -1.7780   -0.5496   -0.4708 C   0  0  0  0  0  0  0  0  0  0  0  0
   -2.7754   -0.4534    0.4298 C   0  0  0  0  0  0  0  0  0  0  0  0
   -3.3436   -1.6863    1.0826 C   0  0  0  0  0  0  0  0  0  0  0  0
   -3.4039    0.8346    0.8854 C   0  0  0  0  0  0  0  0  0  0  0  0
    2.4598    0.6855    0.3762 C   0  0  0  0  0  0  0  0  0  0  0  0
    3.5517   -0.2925    0.7982 C   0  0  0  0  0  0  0  0  0  0  0  0
    4.5136    0.3823    1.6007 O   0  0  0  0  0  0  0  0  0  0  0  0
  2  1  1  6
  2  3  1  0
  3  4  1  0
  4  5  1  0
  5  6  2  3
  6  7  1  0
  6  8  1  0
  2  9  1  0
  9 10  1  0
 10 11  1  0
M  END
