
     RDKit          3D

 24 26  0  0  0  0  0  0  0  0999 V2000
   -4.5918    2.5455   -0.0723 C   0  0  0  0  0  0  0  0  0  0  0  0
   -5.2147    1.2511    0.3736 C   0  0  0  0  0  0  0  0  0  0  0  0
   -6.4195    1.4034    1.2618 C   0  0  0  0  0  0  0  0  0  0  0  0
   -4.7578    0.0344    0.0172 C   0  0  0  0  0  0  0  0  0  0  0  0
   -3.6022   -0.2683   -0.8402 C   0  0  1  0  0  0  0  0  0  0  0  0
   -2.2050   -0.0348   -0.2997 C   0  0  2  0  0  0  0  0  0  0  0  0
   -1.1535    0.5581   -1.1564 C   0  0  0  0  0  0  0  0  0  0  0  0
   -1.3951    1.1527   -2.1962 O   0  0  0  0  0  0  0  0  0  0  0  0
    0.0782    0.3331   -0.6365 O   0  0  0  0  0  0  0  0  0  0  0  0
    1.1201    0.8534   -1.4580 C   0  0  0  0  0  0  0  0  0  0  0  0
    2.3713    0.5586   -0.8168 N   0  0  0  0  0  0  0  0  0  0  0  0
    2.9953    1.3840    0.0617 C   0  0  0  0  0  0  0  0  0  0  0  0
    2.6657    2.4941    0.4357 O   0  0  0  0  0  0  0  0  0  0  0  0
    4.2022    0.6813    0.5031 C   0  0  0  0  0  0  0  0  0  0  0  0
    4.2404   -0.5012   -0.1157 C   0  0  0  0  0  0  0  0  0  0  0  0
    5.2961   -1.5247    0.0657 C   0  0  0  0  0  0  0  0  0  0  0  0
    6.1803   -1.1850    1.2802 C   0  0  0  0  0  0  0  0  0  0  0  0
    6.4992    0.3168    1.3749 C   0  0  0  0  0  0  0  0  0  0  0  0
    5.2283    1.1828    1.4461 C   0  0  0  0  0  0  0  0  0  0  0  0
    3.0554   -0.6034   -0.9706 C   0  0  0  0  0  0  0  0  0  0  0  0
    2.7882   -1.5647   -1.6668 O   0  0  0  0  0  0  0  0  0  0  0  0
   -2.6984   -1.4557   -0.5414 C   0  0  0  0  0  0  0  0  0  0  0  0
   -2.1803   -2.2328   -1.7290 C   0  0  0  0  0  0  0  0  0  0  0  0
   -2.9167   -2.3157    0.6806 C   0  0  0  0  0  0  0  0  0  0  0  0
  1  2  1  0
  2  3  1  0
  2  4  2  3
  5  4  1  1
  5  6  1  0
  6  7  1  6
  7  8  2  0
  7  9  1  0
  9 10  1  0
 10 11  1  0
 11 12  1  0
 12 13  2  0
 12 14  1  0
 14 15  2  0
 15 16  1  0
 16 17  1  0
 17 18  1  0
 18 19  1  0
 15 20  1  0
 20 21  2  0
  6 22  1  0
 22 23  1  0
 22 24  1  0
 22  5  1  0
 20 11  1  0
 19 14  1  0
M  END
