
     RDKit          3D

 26 28  0  0  0  0  0  0  0  0999 V2000
   -5.0645   -0.3442   -0.4841 C   0  0  0  0  0  0  0  0  0  0  0  0
   -3.7270   -0.1814   -1.1755 C   0  0  0  0  0  0  0  0  0  0  0  0
   -2.8161   -1.3641   -0.9190 C   0  0  0  0  0  0  0  0  0  0  0  0
   -3.1592    1.2334   -1.2674 C   0  0  0  0  0  0  0  0  0  0  0  0
   -1.7267    1.5442   -1.0539 C   0  0  0  0  0  0  0  0  0  0  0  0
   -1.0779    2.2131   -1.8424 O   0  0  0  0  0  0  0  0  0  0  0  0
   -1.2749    1.0430    0.1201 O   0  0  0  0  0  0  0  0  0  0  0  0
    0.1096    1.3297    0.3950 C   0  0  1  0  0  0  0  0  0  0  0  0
    0.2559    2.6591    1.0295 C   0  0  0  0  0  0  0  0  0  0  0  0
    0.3602    3.7018    1.5329 N   0  0  0  0  0  0  0  0  0  0  0  0
    0.6297    0.2227    1.3016 C   0  0  0  0  0  0  0  0  0  0  0  0
   -0.1105   -0.2239    2.4112 C   0  0  0  0  0  0  0  0  0  0  0  0
    0.3805   -1.2385    3.2356 C   0  0  0  0  0  0  0  0  0  0  0  0
    1.6227   -1.8119    2.9718 C   0  0  0  0  0  0  0  0  0  0  0  0
    2.3807   -1.3591    1.8939 C   0  0  0  0  0  0  0  0  0  0  0  0
    3.5882   -1.9825    1.6728 O   0  0  0  0  0  0  0  0  0  0  0  0
    4.6715   -1.1772    1.4026 C   0  0  0  0  0  0  0  0  0  0  0  0
    5.4927   -1.5536    0.3393 C   0  0  0  0  0  0  0  0  0  0  0  0
    6.6205   -0.7928    0.0297 C   0  0  0  0  0  0  0  0  0  0  0  0
    6.9333    0.3330    0.7926 C   0  0  0  0  0  0  0  0  0  0  0  0
    6.1246    0.6947    1.8709 C   0  0  0  0  0  0  0  0  0  0  0  0
    4.9960   -0.0643    2.1831 C   0  0  0  0  0  0  0  0  0  0  0  0
    1.8829   -0.3612    1.0496 C   0  0  0  0  0  0  0  0  0  0  0  0
   -3.6576    0.5412   -2.5330 C   0  0  0  0  0  0  0  0  0  0  0  0
   -2.6670    0.0765   -3.5806 C   0  0  0  0  0  0  0  0  0  0  0  0
   -4.9302    1.0709   -3.1603 C   0  0  0  0  0  0  0  0  0  0  0  0
  1  2  1  0
  2  3  1  0
  2  4  1  0
  4  5  1  0
  5  6  2  0
  5  7  1  0
  7  8  1  0
  8  9  1  1
  9 10  3  0
  8 11  1  0
 11 12  2  0
 12 13  1  0
 13 14  2  0
 14 15  1  0
 15 16  1  0
 16 17  1  0
 17 18  2  0
 18 19  1  0
 19 20  2  0
 20 21  1  0
 21 22  2  0
 15 23  2  0
  4 24  1  0
 24 25  1  0
 24 26  1  0
 24  2  1  0
 23 11  1  0
 22 17  1  0
M  END
