
     RDKit          3D

 17 18  0  0  0  0  0  0  0  0999 V2000
    5.2012   -0.2094    0.3698 C   0  0  0  0  0  0  0  0  0  0  0  0
    3.9417    0.3756   -0.2131 C   0  0  0  0  0  0  0  0  0  0  0  0
    3.9705    1.3854   -0.9145 O   0  0  0  0  0  0  0  0  0  0  0  0
    2.6475   -0.3361    0.1251 C   0  0  0  0  0  0  0  0  0  0  0  0
    1.4439    0.2693   -0.5921 C   0  0  2  0  0  0  0  0  0  0  0  0
    1.0218    1.6256   -0.0706 C   0  0  0  0  0  0  0  0  0  0  0  0
   -0.4730    1.5996   -0.1980 C   0  0  0  0  0  0  0  0  0  0  0  0
   -1.1333    2.6285   -0.1504 O   0  0  0  0  0  0  0  0  0  0  0  0
   -0.8877    0.2896   -0.3327 N   0  0  0  0  0  0  0  0  0  0  0  0
   -2.2550   -0.1403   -0.3405 C   0  0  0  0  0  0  0  0  0  0  0  0
   -3.3069    0.7280   -0.0022 C   0  0  0  0  0  0  0  0  0  0  0  0
   -4.6432    0.3061   -0.0139 C   0  0  0  0  0  0  0  0  0  0  0  0
   -4.9625   -0.9982   -0.3674 C   0  0  0  0  0  0  0  0  0  0  0  0
   -3.9449   -1.8784   -0.7103 C   0  0  0  0  0  0  0  0  0  0  0  0
   -2.6099   -1.4531   -0.6974 C   0  0  0  0  0  0  0  0  0  0  0  0
    0.1999   -0.5585   -0.4023 C   0  0  0  0  0  0  0  0  0  0  0  0
    0.2378   -1.7799   -0.3316 O   0  0  0  0  0  0  0  0  0  0  0  0
  1  2  1  0
  2  3  2  0
  2  4  1  0
  5  4  1  1
  5  6  1  0
  6  7  1  0
  7  8  2  0
  7  9  1  0
  9 10  1  0
 10 11  2  0
 11 12  1  0
 12 13  2  0
 13 14  1  0
 14 15  2  0
  9 16  1  0
 16 17  2  0
 16  5  1  0
 15 10  1  0
M  END
