
     RDKit          3D

 11 11  0  0  0  0  0  0  0  0999 V2000
    3.6671   -0.2042    0.4595 C   0  0  0  0  0  0  0  0  0  0  0  0
    2.1857   -0.0784    0.2931 C   0  0  0  0  0  0  0  0  0  0  0  0
    1.3254    0.0594    1.3161 C   0  0  0  0  0  0  0  0  0  0  0  0
   -0.1665    0.1495    1.1677 C   0  0  0  0  0  0  0  0  0  0  0  0
   -0.6467   -0.4024   -0.1855 C   0  0  2  0  0  0  0  0  0  0  0  0
    0.1868    0.1876   -1.3255 C   0  0  0  0  0  0  0  0  0  0  0  0
    1.6612   -0.0808   -1.1088 C   0  0  0  0  0  0  0  0  0  0  0  0
    2.4296   -0.2320   -2.0573 O   0  0  0  0  0  0  0  0  0  0  0  0
   -2.1449   -0.2126   -0.3926 C   0  0  0  0  0  0  0  0  0  0  0  0
   -2.9715   -1.2709   -0.4588 C   0  0  0  0  0  0  0  0  0  0  0  0
   -2.6830    1.1872   -0.5299 C   0  0  0  0  0  0  0  0  0  0  0  0
  1  2  1  0
  2  3  2  0
  3  4  1  0
  4  5  1  0
  5  6  1  0
  6  7  1  0
  7  8  2  0
  5  9  1  6
  9 10  2  0
  9 11  1  0
  7  2  1  0
M  END
