
     RDKit          3D

 24 26  0  0  0  0  0  0  0  0999 V2000
   -2.3704    1.4027    0.9547 C   0  0  0  0  0  0  0  0  0  0  0  0
   -3.2879    1.4856   -0.2335 C   0  0  0  0  0  0  0  0  0  0  0  0
   -4.2987    2.5987   -0.1708 C   0  0  0  0  0  0  0  0  0  0  0  0
   -3.2337    0.6516   -1.2905 C   0  0  0  0  0  0  0  0  0  0  0  0
   -2.3107   -0.4738   -1.4984 C   0  0  1  0  0  0  0  0  0  0  0  0
   -2.4826   -1.7319   -0.6707 C   0  0  2  0  0  0  0  0  0  0  0  0
   -1.3230   -2.4718   -0.1220 C   0  0  0  0  0  0  0  0  0  0  0  0
   -1.3517   -3.6816    0.0466 O   0  0  0  0  0  0  0  0  0  0  0  0
   -0.2855   -1.6531    0.1764 O   0  0  0  0  0  0  0  0  0  0  0  0
    0.8311   -2.3508    0.7193 C   0  0  0  0  0  0  0  0  0  0  0  0
    1.8671   -1.3861    0.9629 N   0  0  0  0  0  0  0  0  0  0  0  0
    2.7937   -1.0110    0.0450 C   0  0  0  0  0  0  0  0  0  0  0  0
    2.9646   -1.4271   -1.0857 O   0  0  0  0  0  0  0  0  0  0  0  0
    3.5979    0.0386    0.6748 C   0  0  0  0  0  0  0  0  0  0  0  0
    3.1184    0.2437    1.9037 C   0  0  0  0  0  0  0  0  0  0  0  0
    3.6360    1.2459    2.8636 C   0  0  0  0  0  0  0  0  0  0  0  0
    4.5811    2.2354    2.1586 C   0  0  0  0  0  0  0  0  0  0  0  0
    5.5180    1.5405    1.1567 C   0  0  0  0  0  0  0  0  0  0  0  0
    4.7492    0.7549    0.0789 C   0  0  0  0  0  0  0  0  0  0  0  0
    1.9826   -0.6592    2.1030 C   0  0  0  0  0  0  0  0  0  0  0  0
    1.3063   -0.7045    3.1136 O   0  0  0  0  0  0  0  0  0  0  0  0
   -2.7882   -1.7582   -2.1614 C   0  0  0  0  0  0  0  0  0  0  0  0
   -4.2342   -1.9443   -2.5551 C   0  0  0  0  0  0  0  0  0  0  0  0
   -1.8239   -2.4354   -3.1072 C   0  0  0  0  0  0  0  0  0  0  0  0
  1  2  1  0
  2  3  1  0
  2  4  2  3
  5  4  1  1
  5  6  1  0
  6  7  1  6
  7  8  2  0
  7  9  1  0
  9 10  1  0
 10 11  1  0
 11 12  1  0
 12 13  2  0
 12 14  1  0
 14 15  2  0
 15 16  1  0
 16 17  1  0
 17 18  1  0
 18 19  1  0
 15 20  1  0
 20 21  2  0
  6 22  1  0
 22 23  1  0
 22 24  1  0
 22  5  1  0
 20 11  1  0
 19 14  1  0
M  END
