
     RDKit          3D

 24 25  0  0  0  0  0  0  0  0999 V2000
   -4.7073   -0.7387   -1.2788 C   0  0  0  0  0  0  0  0  0  0  0  0
   -3.3222   -1.3580   -1.0626 C   0  0  0  0  0  0  0  0  0  0  0  0
   -2.3960   -0.9558   -2.2114 C   0  0  0  0  0  0  0  0  0  0  0  0
   -2.7743   -0.9313    0.3153 C   0  0  0  0  0  0  0  0  0  0  0  0
   -1.4068   -1.5356    0.7091 C   0  0  2  0  0  0  0  0  0  0  0  0
   -1.4256   -3.0672    0.7707 C   0  0  0  0  0  0  0  0  0  0  0  0
   -0.8995   -0.9199    2.0107 C   0  0  0  0  0  0  0  0  0  0  0  0
   -1.6947   -1.3082    3.4925 S   0  0  0  0  0  0  0  0  0  0  0  0
   -0.6468   -0.3263    4.3990 C   0  0  0  0  0  0  0  0  0  0  0  0
    0.2860    0.2969    3.6043 C   0  0  0  0  0  0  0  0  0  0  0  0
    0.1502   -0.0277    2.2177 C   0  0  0  0  0  0  0  0  0  0  0  0
    0.9448    0.4503    1.1729 N   0  0  0  0  0  0  0  0  0  0  0  0
    1.9465    1.3969    1.2947 C   0  0  0  0  0  0  0  0  0  0  0  0
    2.2219    2.0183    2.3141 O   0  0  0  0  0  0  0  0  0  0  0  0
    2.6700    1.6785    0.0575 C   0  0  0  0  0  0  0  0  0  0  0  0
    3.2154    2.9083   -0.2657 C   0  0  0  0  0  0  0  0  0  0  0  0
    3.8140    2.7675   -1.4765 N   0  0  0  0  0  0  0  0  0  0  0  0
    4.5200    3.7830   -2.2218 C   0  0  0  0  0  0  0  0  0  0  0  0
    3.7182    1.5253   -1.9769 N   0  0  0  0  0  0  0  0  0  0  0  0
    3.0473    0.8325   -1.0326 C   0  0  0  0  0  0  0  0  0  0  0  0
    2.7788   -0.6406   -1.1561 C   0  0  0  0  0  0  0  0  0  0  0  0
    1.4346   -0.8765   -1.1791 F   0  0  0  0  0  0  0  0  0  0  0  0
    3.2651   -1.3338   -0.0930 F   0  0  0  0  0  0  0  0  0  0  0  0
    3.2936   -1.2138   -2.2731 F   0  0  0  0  0  0  0  0  0  0  0  0
  1  2  1  0
  2  3  1  0
  2  4  1  0
  4  5  1  0
  5  6  1  1
  5  7  1  0
  7  8  1  0
  8  9  1  0
  9 10  2  0
 10 11  1  0
 11 12  1  0
 12 13  1  0
 13 14  2  0
 13 15  1  0
 15 16  2  0
 16 17  1  0
 17 18  1  0
 17 19  1  0
 19 20  2  0
 20 21  1  0
 21 22  1  0
 21 23  1  0
 21 24  1  0
 11  7  2  0
 20 15  1  0
M  END
