
     RDKit          3D

 13 14  0  0  0  0  0  0  0  0999 V2000
    3.7498   -0.9524    0.0833 C   0  0  0  0  0  0  0  0  0  0  0  0
    2.3387   -1.1194    0.1103 O   0  0  0  0  0  0  0  0  0  0  0  0
    1.5659   -0.0058   -0.1034 C   0  0  0  0  0  0  0  0  0  0  0  0
    2.0716    1.2607   -0.4107 C   0  0  0  0  0  0  0  0  0  0  0  0
    1.2063    2.3328   -0.6254 C   0  0  0  0  0  0  0  0  0  0  0  0
   -0.1703    2.1444   -0.5475 C   0  0  0  0  0  0  0  0  0  0  0  0
   -0.7051    0.8804   -0.2544 C   0  0  0  0  0  0  0  0  0  0  0  0
    0.1708   -0.1995   -0.0058 C   0  0  0  0  0  0  0  0  0  0  0  0
   -0.3727   -1.5762    0.3142 C   0  0  0  0  0  0  0  0  0  0  0  0
   -1.8406   -1.5786    0.7355 C   0  0  0  0  0  0  0  0  0  0  0  0
   -2.6682   -0.7325   -0.2233 C   0  0  0  0  0  0  0  0  0  0  0  0
   -2.2064    0.7251   -0.1856 C   0  0  1  0  0  0  0  0  0  0  0  0
   -2.6527    1.3430    1.0202 O   0  0  0  0  0  0  0  0  0  0  0  0
  1  2  1  0
  2  3  1  0
  3  4  2  0
  4  5  1  0
  5  6  2  0
  6  7  1  0
  7  8  2  0
  8  9  1  0
  9 10  1  0
 10 11  1  0
 11 12  1  0
 12 13  1  1
  8  3  1  0
 12  7  1  0
M  END
