
     RDKit          3D

 22 23  0  0  0  0  0  0  0  0999 V2000
   -6.7176   -0.3938   -0.3325 C   0  0  0  0  0  0  0  0  0  0  0  0
   -5.3621   -0.2248   -0.7508 O   0  0  0  0  0  0  0  0  0  0  0  0
   -4.5291    0.2297    0.2358 C   0  0  0  0  0  0  0  0  0  0  0  0
   -4.8864    0.4692    1.3820 O   0  0  0  0  0  0  0  0  0  0  0  0
   -3.1032    0.3619   -0.3099 C   0  0  1  0  0  0  0  0  0  0  0  0
   -3.0677    1.4646   -1.3629 C   0  0  0  0  0  0  0  0  0  0  0  0
   -2.2357    0.7167    0.7696 O   0  0  0  0  0  0  0  0  0  0  0  0
   -0.9554    0.2418    0.7709 C   0  0  0  0  0  0  0  0  0  0  0  0
   -0.2991    0.3533    2.0005 C   0  0  0  0  0  0  0  0  0  0  0  0
    1.0186   -0.0831    2.1475 C   0  0  0  0  0  0  0  0  0  0  0  0
    1.6961   -0.6118    1.0520 C   0  0  0  0  0  0  0  0  0  0  0  0
    2.9839   -1.0486    1.2617 O   0  0  0  0  0  0  0  0  0  0  0  0
    3.9287   -0.6636    0.3356 C   0  0  0  0  0  0  0  0  0  0  0  0
    4.1334    0.6902    0.0423 C   0  0  0  0  0  0  0  0  0  0  0  0
    5.1241    1.0621   -0.8681 C   0  0  0  0  0  0  0  0  0  0  0  0
    5.9154    0.0835   -1.4696 C   0  0  0  0  0  0  0  0  0  0  0  0
    7.1346    0.5471   -2.5917 Cl  0  0  0  0  0  0  0  0  0  0  0  0
    5.7321   -1.2647   -1.1674 C   0  0  0  0  0  0  0  0  0  0  0  0
    4.7415   -1.6371   -0.2572 C   0  0  0  0  0  0  0  0  0  0  0  0
    4.5372   -3.3138    0.0973 Cl  0  0  0  0  0  0  0  0  0  0  0  0
    1.0466   -0.7390   -0.1775 C   0  0  0  0  0  0  0  0  0  0  0  0
   -0.2756   -0.3026   -0.3195 C   0  0  0  0  0  0  0  0  0  0  0  0
  1  2  1  0
  2  3  1  0
  3  4  2  0
  3  5  1  0
  5  6  1  6
  5  7  1  0
  7  8  1  0
  8  9  2  0
  9 10  1  0
 10 11  2  0
 11 12  1  0
 12 13  1  0
 13 14  2  0
 14 15  1  0
 15 16  2  0
 16 17  1  0
 16 18  1  0
 18 19  2  0
 19 20  1  0
 11 21  1  0
 21 22  2  0
 22  8  1  0
 19 13  1  0
M  END
