
     RDKit          3D

 25 27  0  0  0  0  0  0  0  0999 V2000
   -4.8300   -0.2184    0.1610 C   0  0  0  0  0  0  0  0  0  0  0  0
   -3.4804   -0.9561    0.2286 C   0  0  0  0  0  0  0  0  0  0  0  0
   -3.6812   -2.3278   -0.4614 C   0  0  0  0  0  0  0  0  0  0  0  0
   -3.1260   -1.2242    1.7021 C   0  0  0  0  0  0  0  0  0  0  0  0
   -2.3252   -0.1914   -0.5008 C   0  0  1  0  0  0  0  0  0  0  0  0
   -2.7140    0.1238   -1.8507 O   0  0  0  0  0  0  0  0  0  0  0  0
   -1.7288    1.0708    0.1981 C   0  0  1  0  0  0  0  0  0  0  0  0
   -0.5736    1.5385   -0.5276 O   0  0  0  0  0  0  0  0  0  0  0  0
    0.6456    0.9700   -0.2970 C   0  0  0  0  0  0  0  0  0  0  0  0
    1.6667    1.4571   -1.1149 C   0  0  0  0  0  0  0  0  0  0  0  0
    2.9720    0.9679   -1.0023 C   0  0  0  0  0  0  0  0  0  0  0  0
    3.2904   -0.0221   -0.0630 C   0  0  0  0  0  0  0  0  0  0  0  0
    4.6621   -0.5413    0.0612 C   0  0  0  0  0  0  0  0  0  0  0  0
    5.3489   -1.0465   -1.0555 C   0  0  0  0  0  0  0  0  0  0  0  0
    6.6508   -1.5412   -0.9383 C   0  0  0  0  0  0  0  0  0  0  0  0
    7.2892   -1.5375    0.2991 C   0  0  0  0  0  0  0  0  0  0  0  0
    6.6274   -1.0400    1.4186 C   0  0  0  0  0  0  0  0  0  0  0  0
    5.3251   -0.5468    1.3000 C   0  0  0  0  0  0  0  0  0  0  0  0
    2.2564   -0.5008    0.7567 C   0  0  0  0  0  0  0  0  0  0  0  0
    0.9471   -0.0120    0.6434 C   0  0  0  0  0  0  0  0  0  0  0  0
   -2.6495    2.1981    0.2752 N   0  0  0  0  0  0  0  0  0  0  0  0
   -3.1313    2.9654   -0.7422 C   0  0  0  0  0  0  0  0  0  0  0  0
   -3.8938    3.9183   -0.2558 N   0  0  0  0  0  0  0  0  0  0  0  0
   -3.8300    3.7044    1.0903 C   0  0  0  0  0  0  0  0  0  0  0  0
   -3.0818    2.6655    1.4717 N   0  0  0  0  0  0  0  0  0  0  0  0
  1  2  1  0
  2  3  1  0
  2  4  1  0
  2  5  1  0
  5  6  1  6
  5  7  1  0
  7  8  1  6
  8  9  1  0
  9 10  2  0
 10 11  1  0
 11 12  2  0
 12 13  1  0
 13 14  2  0
 14 15  1  0
 15 16  2  0
 16 17  1  0
 17 18  2  0
 12 19  1  0
 19 20  2  0
  7 21  1  0
 21 22  1  0
 22 23  2  0
 23 24  1  0
 24 25  2  0
 20  9  1  0
 25 21  1  0
 18 13  1  0
M  END
