
     RDKit          3D

 15 15  0  0  0  0  0  0  0  0999 V2000
   -1.6215   -2.6638    0.2586 C   0  0  0  0  0  0  0  0  0  0  0  0
   -1.7033   -1.4529    1.1488 C   0  0  0  0  0  0  0  0  0  0  0  0
   -1.8720   -0.1036    0.4794 C   0  0  0  0  0  0  0  0  0  0  0  0
   -0.6294    0.7800    0.6895 C   0  0  1  0  0  0  0  0  0  0  0  0
    0.5481    0.2301   -0.1058 C   0  0  0  0  0  0  0  0  0  0  0  0
    1.6363   -0.3326    0.5793 C   0  0  0  0  0  0  0  0  0  0  0  0
    2.7231   -0.8587   -0.1201 C   0  0  0  0  0  0  0  0  0  0  0  0
    2.7369   -0.8307   -1.5119 C   0  0  0  0  0  0  0  0  0  0  0  0
    1.6636   -0.2776   -2.2057 C   0  0  0  0  0  0  0  0  0  0  0  0
    0.5740    0.2486   -1.5090 C   0  0  0  0  0  0  0  0  0  0  0  0
   -0.9681    2.2356    0.3442 C   0  0  0  0  0  0  0  0  0  0  0  0
    0.1741    3.1296    0.7292 N   0  0  0  0  0  4  0  0  0  0  0  0
    0.3900    3.2796    1.9384 O   0  0  0  0  0  1  0  0  0  0  0  0
    0.7909    3.6817   -0.1901 O   0  0  0  0  0  0  0  0  0  0  0  0
   -1.6355   -1.5466    2.3744 O   0  0  0  0  0  0  0  0  0  0  0  0
  1  2  1  0
  2  3  1  0
  4  3  1  6
  4  5  1  0
  5  6  2  0
  6  7  1  0
  7  8  2  0
  8  9  1  0
  9 10  2  0
  4 11  1  0
 11 12  1  0
 12 13  1  0
 12 14  2  0
  2 15  2  0
 10  5  1  0
M  CHG  2  12   1  13  -1
M  END
