
     RDKit          3D

 25 27  0  0  0  0  0  0  0  0999 V2000
   -5.3809    1.2502    0.1851 C   0  0  0  0  0  0  0  0  0  0  0  0
   -3.8623    1.0395    0.3941 C   0  0  0  0  0  0  0  0  0  0  0  0
   -3.5997    0.9811    1.9104 C   0  0  0  0  0  0  0  0  0  0  0  0
   -3.1388    2.2681   -0.1894 C   0  0  0  0  0  0  0  0  0  0  0  0
   -3.4364   -0.2997   -0.2998 C   0  0  1  0  0  0  0  0  0  0  0  0
   -3.8156   -0.2259   -1.6891 O   0  0  0  0  0  0  0  0  0  0  0  0
   -1.9348   -0.7025   -0.1460 C   0  0  2  0  0  0  0  0  0  0  0  0
   -1.1009    0.1739   -0.9252 O   0  0  0  0  0  0  0  0  0  0  0  0
    0.2160    0.2050   -0.5641 C   0  0  0  0  0  0  0  0  0  0  0  0
    1.1427    0.0054   -1.5838 C   0  0  0  0  0  0  0  0  0  0  0  0
    2.5111    0.0382   -1.3027 C   0  0  0  0  0  0  0  0  0  0  0  0
    2.9792    0.2875   -0.0013 C   0  0  0  0  0  0  0  0  0  0  0  0
    4.4243    0.3277    0.2923 C   0  0  0  0  0  0  0  0  0  0  0  0
    5.2851   -0.6928   -0.1492 C   0  0  0  0  0  0  0  0  0  0  0  0
    6.6561   -0.6530    0.1254 C   0  0  0  0  0  0  0  0  0  0  0  0
    7.1915    0.4107    0.8474 C   0  0  0  0  0  0  0  0  0  0  0  0
    6.3579    1.4329    1.2959 C   0  0  0  0  0  0  0  0  0  0  0  0
    4.9877    1.3913    1.0198 C   0  0  0  0  0  0  0  0  0  0  0  0
    2.0237    0.5136    1.0069 C   0  0  0  0  0  0  0  0  0  0  0  0
    0.6529    0.4854    0.7288 C   0  0  0  0  0  0  0  0  0  0  0  0
   -1.7037   -2.0826   -0.5896 N   0  0  0  0  0  0  0  0  0  0  0  0
   -0.8440   -2.9888   -0.0400 C   0  0  0  0  0  0  0  0  0  0  0  0
   -0.9250   -4.1267   -0.6904 N   0  0  0  0  0  0  0  0  0  0  0  0
   -1.8501   -3.8631   -1.6592 C   0  0  0  0  0  0  0  0  0  0  0  0
   -2.3672   -2.6302   -1.6361 N   0  0  0  0  0  0  0  0  0  0  0  0
  1  2  1  0
  2  3  1  0
  2  4  1  0
  2  5  1  0
  5  6  1  6
  5  7  1  0
  7  8  1  6
  8  9  1  0
  9 10  2  0
 10 11  1  0
 11 12  2  0
 12 13  1  0
 13 14  2  0
 14 15  1  0
 15 16  2  0
 16 17  1  0
 17 18  2  0
 12 19  1  0
 19 20  2  0
  7 21  1  0
 21 22  1  0
 22 23  2  0
 23 24  1  0
 24 25  2  0
 20  9  1  0
 25 21  1  0
 18 13  1  0
M  END
