
     RDKit          3D

 18 20  0  0  0  0  0  0  0  0999 V2000
   -0.2756   -2.6067    0.6624 C   0  0  0  0  0  0  0  0  0  0  0  0
   -0.1839   -1.0695    0.6331 C   0  0  2  0  0  0  0  0  0  0  0  0
    1.2547   -0.6422    0.4419 C   0  0  0  0  0  0  0  0  0  0  0  0
    2.3174   -1.4243    0.4520 N   0  0  0  0  0  0  0  0  0  0  0  0
    3.3968   -0.6025    0.2437 C   0  0  0  0  0  0  0  0  0  0  0  0
    4.7611   -0.9143    0.1612 C   0  0  0  0  0  0  0  0  0  0  0  0
    5.6749    0.1240   -0.0605 C   0  0  0  0  0  0  0  0  0  0  0  0
    5.2381    1.4444   -0.1969 C   0  0  0  0  0  0  0  0  0  0  0  0
    3.8797    1.7738   -0.1171 C   0  0  0  0  0  0  0  0  0  0  0  0
    2.9925    0.7185    0.1042 C   0  0  0  0  0  0  0  0  0  0  0  0
    1.6298    0.6675    0.2356 N   0  0  0  0  0  0  0  0  0  0  0  0
   -0.7630   -0.4817    1.9451 C   0  0  0  0  0  0  0  0  0  0  0  0
   -2.1432    0.0512    1.5733 C   0  0  0  0  0  0  0  0  0  0  0  0
   -1.9380    0.5858    0.1576 C   0  0  0  0  0  0  0  0  0  0  0  0
   -3.2303    0.9952   -0.5794 C   0  0  0  0  0  0  0  0  0  0  0  0
   -2.9073    1.5757   -1.9601 C   0  0  0  0  0  0  0  0  0  0  0  0
   -4.2729   -0.1164   -0.7236 C   0  0  0  0  0  0  0  0  0  0  0  0
   -1.1004   -0.5217   -0.4971 C   0  0  0  0  0  0  0  0  0  0  0  0
  2  1  1  1
  2  3  1  0
  3  4  2  0
  4  5  1  0
  5  6  2  0
  6  7  1  0
  7  8  2  0
  8  9  1  0
  9 10  2  0
 10 11  1  0
  2 12  1  0
 12 13  1  0
 13 14  1  0
 14 15  1  0
 15 16  1  0
 15 17  1  0
 14 18  1  0
 18  2  1  0
 11  3  1  0
 10  5  1  0
M  END
