
     RDKit          3D

 20 22  0  0  0  0  0  0  0  0999 V2000
    3.7349   -0.1642   -1.4034 O   0  0  0  0  0  0  0  0  0  0  0  0
    3.5499    0.4522   -0.3621 C   0  0  0  0  0  0  0  0  0  0  0  0
    4.6401    1.2136    0.3500 C   0  0  0  0  0  0  0  0  0  0  0  0
    3.8771    1.8759    1.4878 C   0  0  0  0  0  0  0  0  0  0  0  0
    2.7206    0.9249    1.7688 C   0  0  0  0  0  0  0  0  0  0  0  0
    2.2224    0.5199    0.3761 C   0  0  2  0  0  0  0  0  0  0  0  0
    1.4598   -0.8024    0.2994 C   0  0  1  0  0  0  0  0  0  0  0  0
    0.6806   -1.2102    1.5465 C   0  0  0  0  0  0  0  0  0  0  0  0
   -0.5354   -1.8948    0.9944 C   0  0  0  0  0  0  0  0  0  0  0  0
   -1.2909   -2.5939    1.6517 O   0  0  0  0  0  0  0  0  0  0  0  0
   -0.6650   -1.5411   -0.3156 N   0  0  0  0  0  0  0  0  0  0  0  0
   -1.8455   -1.8206   -1.1042 C   0  0  0  0  0  0  0  0  0  0  0  0
   -2.9099   -0.7648   -0.9112 C   0  0  0  0  0  0  0  0  0  0  0  0
   -2.9313    0.3808   -1.7198 C   0  0  0  0  0  0  0  0  0  0  0  0
   -3.9003    1.3663   -1.5257 C   0  0  0  0  0  0  0  0  0  0  0  0
   -4.8524    1.2205   -0.5185 C   0  0  0  0  0  0  0  0  0  0  0  0
   -4.8342    0.0918    0.2986 C   0  0  0  0  0  0  0  0  0  0  0  0
   -3.8662   -0.8951    0.1064 C   0  0  0  0  0  0  0  0  0  0  0  0
    0.3697   -0.7630   -0.7508 C   0  0  0  0  0  0  0  0  0  0  0  0
    0.4279   -0.1607   -1.8111 O   0  0  0  0  0  0  0  0  0  0  0  0
  1  2  2  0
  2  3  1  0
  3  4  1  0
  4  5  1  0
  6  5  1  1
  6  7  1  0
  7  8  1  1
  8  9  1  0
  9 10  2  0
  9 11  1  0
 11 12  1  0
 12 13  1  0
 13 14  2  0
 14 15  1  0
 15 16  2  0
 16 17  1  0
 17 18  2  0
 11 19  1  0
 19 20  2  0
  6  2  1  0
 19  7  1  0
 18 13  1  0
M  END
