
     RDKit          3D

 12 13  0  0  0  0  0  0  0  0999 V2000
   -1.2396    2.4899   -0.2244 O   0  0  0  0  0  0  0  0  0  0  0  0
   -1.0891    1.1077   -0.5383 C   0  0  2  0  0  0  0  0  0  0  0  0
   -2.1333    0.3248    0.2648 C   0  0  0  0  0  0  0  0  0  0  0  0
   -1.9632   -1.1979    0.2357 C   0  0  0  0  0  0  0  0  0  0  0  0
   -0.6771   -1.6938   -0.4256 C   0  0  0  0  0  0  0  0  0  0  0  0
    0.4948   -0.7891   -0.1467 C   0  0  0  0  0  0  0  0  0  0  0  0
    1.7688   -1.3104    0.1049 C   0  0  0  0  0  0  0  0  0  0  0  0
    2.8540   -0.4516    0.2804 C   0  0  0  0  0  0  0  0  0  0  0  0
    2.6691    0.9259    0.1809 C   0  0  0  0  0  0  0  0  0  0  0  0
    4.1480    2.0854    0.3927 Br  0  0  0  0  0  0  0  0  0  0  0  0
    1.4068    1.4575   -0.0822 C   0  0  0  0  0  0  0  0  0  0  0  0
    0.3042    0.6048   -0.2284 C   0  0  0  0  0  0  0  0  0  0  0  0
  2  1  1  1
  2  3  1  0
  3  4  1  0
  4  5  1  0
  5  6  1  0
  6  7  2  0
  7  8  1  0
  8  9  2  0
  9 10  1  0
  9 11  1  0
 11 12  2  0
 12  2  1  0
 12  6  1  0
M  END
