
     RDKit          3D

 24 26  0  0  0  0  0  0  0  0999 V2000
   -5.4717    0.4296   -2.2963 C   0  0  0  0  0  0  0  0  0  0  0  0
   -4.9382   -0.2320   -1.0547 C   0  0  0  0  0  0  0  0  0  0  0  0
   -5.6722    0.1148    0.2110 C   0  0  0  0  0  0  0  0  0  0  0  0
   -3.8839   -1.0699   -1.1074 C   0  0  0  0  0  0  0  0  0  0  0  0
   -3.2687   -1.7924    0.0150 C   0  0  1  0  0  0  0  0  0  0  0  0
   -1.7989   -2.1578    0.0317 C   0  0  1  0  0  0  0  0  0  0  0  0
   -0.8681   -1.8581   -1.0791 C   0  0  0  0  0  0  0  0  0  0  0  0
   -1.0765   -2.2169   -2.2288 O   0  0  0  0  0  0  0  0  0  0  0  0
    0.2455   -1.2230   -0.6371 O   0  0  0  0  0  0  0  0  0  0  0  0
    1.1687   -0.9421   -1.6849 C   0  0  0  0  0  0  0  0  0  0  0  0
    2.2886   -0.2531   -1.1067 N   0  0  0  0  0  0  0  0  0  0  0  0
    2.3547    1.0913   -0.9327 C   0  0  0  0  0  0  0  0  0  0  0  0
    1.5507    1.9469   -1.2520 O   0  0  0  0  0  0  0  0  0  0  0  0
    3.6262    1.3578   -0.2554 C   0  0  0  0  0  0  0  0  0  0  0  0
    4.2383    0.1892   -0.0525 C   0  0  0  0  0  0  0  0  0  0  0  0
    5.5417    0.0168    0.6294 C   0  0  0  0  0  0  0  0  0  0  0  0
    5.9449    1.3081    1.3633 C   0  0  0  0  0  0  0  0  0  0  0  0
    5.6471    2.5715    0.5376 C   0  0  0  0  0  0  0  0  0  0  0  0
    4.1643    2.6808    0.1381 C   0  0  0  0  0  0  0  0  0  0  0  0
    3.3778   -0.8702   -0.5827 C   0  0  0  0  0  0  0  0  0  0  0  0
    3.6385   -2.0580   -0.5338 O   0  0  0  0  0  0  0  0  0  0  0  0
   -2.3242   -1.0798    0.9712 C   0  0  0  0  0  0  0  0  0  0  0  0
   -1.9591    0.3699    0.7363 C   0  0  0  0  0  0  0  0  0  0  0  0
   -2.4297   -1.4319    2.4347 C   0  0  0  0  0  0  0  0  0  0  0  0
  1  2  1  0
  2  3  1  0
  2  4  2  3
  5  4  1  6
  5  6  1  0
  6  7  1  6
  7  8  2  0
  7  9  1  0
  9 10  1  0
 10 11  1  0
 11 12  1  0
 12 13  2  0
 12 14  1  0
 14 15  2  0
 15 16  1  0
 16 17  1  0
 17 18  1  0
 18 19  1  0
 15 20  1  0
 20 21  2  0
  6 22  1  0
 22 23  1  0
 22 24  1  0
 22  5  1  0
 20 11  1  0
 19 14  1  0
M  END
