
     RDKit          3D

 15 15  0  0  0  0  0  0  0  0999 V2000
    1.4450    0.3775   -0.1547 C   0  0  0  0  0  0  0  0  0  0  0  0
    2.9077    0.2876    0.1318 C   0  0  0  0  0  0  0  0  0  0  0  0
    3.3370    0.3541    1.2806 O   0  0  0  0  0  0  0  0  0  0  0  0
    3.8048    0.1108   -1.0791 C   0  0  0  0  0  0  0  0  0  0  0  0
    5.2744    0.0273   -0.7053 C   0  0  0  0  0  0  0  0  0  0  0  0
    0.5544    0.5298    0.8394 C   0  0  0  0  0  0  0  0  0  0  0  0
   -0.9596    0.6338    0.7192 C   0  0  1  0  0  0  0  0  0  0  0  0
   -1.3887    1.1275   -0.6625 C   0  0  0  0  0  0  0  0  0  0  0  0
   -1.2198    2.5994   -0.9291 C   0  0  0  0  0  0  0  0  0  0  0  0
   -1.9201    0.3035   -1.5856 C   0  0  0  0  0  0  0  0  0  0  0  0
   -2.1644   -1.1608   -1.3673 C   0  0  0  0  0  0  0  0  0  0  0  0
   -1.6044   -1.7051   -0.0498 C   0  0  0  0  0  0  0  0  0  0  0  0
   -1.7014   -0.6953    1.1191 C   0  0  0  0  0  0  0  0  0  0  0  0
   -3.1873   -0.3921    1.4368 C   0  0  0  0  0  0  0  0  0  0  0  0
   -1.1026   -1.3419    2.3873 C   0  0  0  0  0  0  0  0  0  0  0  0
  1  2  1  0
  2  3  2  0
  2  4  1  0
  4  5  1  0
  1  6  2  0
  7  6  1  6
  7  8  1  0
  8  9  1  0
  8 10  2  0
 10 11  1  0
 11 12  1  0
 12 13  1  0
 13 14  1  0
 13 15  1  0
 13  7  1  0
M  END
