
     RDKit          3D

 14 15  0  0  0  0  0  0  0  0999 V2000
    3.4673    0.0968   -0.9894 C   0  0  0  0  0  0  0  0  0  0  0  0
    2.3276   -0.2884   -0.0663 C   0  0  1  0  0  0  0  0  0  0  0  0
    2.1347    0.6715    1.0873 C   0  0  0  0  0  0  0  0  0  0  0  0
    0.6786    0.4598    1.4351 C   0  0  0  0  0  0  0  0  0  0  0  0
    0.0147    0.0947    0.0876 C   0  0  2  0  0  0  0  0  0  0  0  0
    1.0933   -0.2891   -0.7954 O   0  0  0  0  0  0  0  0  0  0  0  0
   -0.6686    1.3479   -0.4841 C   0  0  0  0  0  0  0  0  0  0  0  0
   -1.9988    1.5402   -0.3711 C   0  0  0  0  0  0  0  0  0  0  0  0
   -2.9481    0.5730    0.2709 C   0  0  0  0  0  0  0  0  0  0  0  0
   -2.2687   -0.6290    0.9300 C   0  0  0  0  0  0  0  0  0  0  0  0
   -1.0111   -1.1053    0.1659 C   0  0  0  0  0  0  0  0  0  0  0  0
   -0.4405   -2.3512    0.8825 C   0  0  0  0  0  0  0  0  0  0  0  0
   -1.4042   -1.5918   -1.2571 C   0  0  0  0  0  0  0  0  0  0  0  0
    0.1788    2.3743   -1.1881 C   0  0  0  0  0  0  0  0  0  0  0  0
  2  1  1  6
  2  3  1  0
  3  4  1  0
  5  4  1  1
  5  6  1  0
  5  7  1  0
  7  8  2  0
  8  9  1  0
  9 10  1  0
 10 11  1  0
 11 12  1  0
 11 13  1  0
  7 14  1  0
  6  2  1  0
 11  5  1  0
M  END
