
     RDKit          3D

 25 27  0  0  0  0  0  0  0  0999 V2000
   -3.4441   -1.7378    0.3588 C   0  0  0  0  0  0  0  0  0  0  0  0
   -3.5572   -0.7336   -0.8011 C   0  0  0  0  0  0  0  0  0  0  0  0
   -4.8519    0.0829   -0.6388 C   0  0  0  0  0  0  0  0  0  0  0  0
   -3.6943   -1.5386   -2.1168 C   0  0  0  0  0  0  0  0  0  0  0  0
   -2.2745    0.1520   -0.9024 C   0  0  1  0  0  0  0  0  0  0  0  0
   -2.4220    1.1031   -1.9739 O   0  0  0  0  0  0  0  0  0  0  0  0
   -1.7484    0.8489    0.3861 C   0  0  1  0  0  0  0  0  0  0  0  0
   -0.5409    1.5699    0.0606 O   0  0  0  0  0  0  0  0  0  0  0  0
    0.6644    0.9336    0.1370 C   0  0  0  0  0  0  0  0  0  0  0  0
    0.8831   -0.4110    0.4259 C   0  0  0  0  0  0  0  0  0  0  0  0
    2.1886   -0.9215    0.4560 C   0  0  0  0  0  0  0  0  0  0  0  0
    3.3004   -0.1051    0.1968 C   0  0  0  0  0  0  0  0  0  0  0  0
    4.6676   -0.6488    0.2298 C   0  0  0  0  0  0  0  0  0  0  0  0
    5.1441   -1.3425    1.3549 C   0  0  0  0  0  0  0  0  0  0  0  0
    6.4422   -1.8593    1.3869 C   0  0  0  0  0  0  0  0  0  0  0  0
    7.2866   -1.6916    0.2925 C   0  0  0  0  0  0  0  0  0  0  0  0
    6.8346   -1.0073   -0.8328 C   0  0  0  0  0  0  0  0  0  0  0  0
    5.5366   -0.4901   -0.8628 C   0  0  0  0  0  0  0  0  0  0  0  0
    3.0637    1.2452   -0.0941 C   0  0  0  0  0  0  0  0  0  0  0  0
    1.7622    1.7560   -0.1232 C   0  0  0  0  0  0  0  0  0  0  0  0
   -2.6636    1.8236    0.9641 N   0  0  0  0  0  0  0  0  0  0  0  0
   -3.0751    3.0125    0.4415 C   0  0  0  0  0  0  0  0  0  0  0  0
   -3.8506    3.6300    1.3032 N   0  0  0  0  0  0  0  0  0  0  0  0
   -3.8726    2.7738    2.3653 C   0  0  0  0  0  0  0  0  0  0  0  0
   -3.1608    1.6539    2.2122 N   0  0  0  0  0  0  0  0  0  0  0  0
  1  2  1  0
  2  3  1  0
  2  4  1  0
  2  5  1  0
  5  6  1  6
  5  7  1  0
  7  8  1  6
  8  9  1  0
  9 10  2  0
 10 11  1  0
 11 12  2  0
 12 13  1  0
 13 14  2  0
 14 15  1  0
 15 16  2  0
 16 17  1  0
 17 18  2  0
 12 19  1  0
 19 20  2  0
  7 21  1  0
 21 22  1  0
 22 23  2  0
 23 24  1  0
 24 25  2  0
 20  9  1  0
 25 21  1  0
 18 13  1  0
M  END
