
     RDKit          3D

 23 24  0  0  0  0  0  0  0  0999 V2000
    4.6429    1.0981   -1.6235 F   0  0  0  0  0  0  0  0  0  0  0  0
    3.3722    1.2022   -1.1528 C   0  0  0  0  0  0  0  0  0  0  0  0
    2.5570    0.7928   -2.1667 F   0  0  0  0  0  0  0  0  0  0  0  0
    3.1657    0.3428    0.0995 C   0  0  0  0  0  0  0  0  0  0  0  0
    3.4623   -0.9610   -0.1302 F   0  0  0  0  0  0  0  0  0  0  0  0
    3.9903    0.7611    1.0943 F   0  0  0  0  0  0  0  0  0  0  0  0
    1.8361    0.4404    0.6128 O   0  0  0  0  0  0  0  0  0  0  0  0
    0.9793   -0.5947    0.1282 C   0  0  0  0  0  0  0  0  0  0  0  0
   -0.4845   -0.2545    0.4892 C   0  0  2  0  0  0  0  0  0  0  0  0
   -1.4604   -1.3590    0.0421 C   0  0  0  0  0  0  0  0  0  0  0  0
   -1.1831   -2.6623    0.6026 N   0  0  0  0  0  0  0  0  0  0  0  0
   -0.9795   -3.8297   -0.0634 C   0  0  0  0  0  0  0  0  0  0  0  0
   -0.7469   -4.7902    0.8007 N   0  0  0  0  0  0  0  0  0  0  0  0
   -0.8333   -4.1488    2.0037 C   0  0  0  0  0  0  0  0  0  0  0  0
   -1.0981   -2.8416    1.9308 N   0  0  0  0  0  0  0  0  0  0  0  0
   -0.9551    1.0864   -0.0908 C   0  0  0  0  0  0  0  0  0  0  0  0
   -0.6611    1.4272   -1.4266 C   0  0  0  0  0  0  0  0  0  0  0  0
   -1.0846    2.6420   -1.9722 C   0  0  0  0  0  0  0  0  0  0  0  0
   -1.8204    3.5309   -1.1971 C   0  0  0  0  0  0  0  0  0  0  0  0
   -2.3402    5.0247   -1.8721 Cl  0  0  0  0  0  0  0  0  0  0  0  0
   -2.1458    3.2131    0.1160 C   0  0  0  0  0  0  0  0  0  0  0  0
   -1.7229    1.9975    0.6645 C   0  0  0  0  0  0  0  0  0  0  0  0
   -2.2141    1.6686    2.2891 Cl  0  0  0  0  0  0  0  0  0  0  0  0
  1  2  1  0
  2  3  1  0
  2  4  1  0
  4  5  1  0
  4  6  1  0
  4  7  1  0
  7  8  1  0
  9  8  1  6
  9 10  1  0
 10 11  1  0
 11 12  1  0
 12 13  2  0
 13 14  1  0
 14 15  2  0
  9 16  1  0
 16 17  2  0
 17 18  1  0
 18 19  2  0
 19 20  1  0
 19 21  1  0
 21 22  2  0
 22 23  1  0
 15 11  1  0
 22 16  1  0
M  END
