
     RDKit          3D

 18 18  0  0  0  0  0  0  0  0999 V2000
   -4.3532    0.0732    2.3923 C   0  0  0  0  0  0  0  0  0  0  0  0
   -2.8452   -0.0631    2.2434 C   0  0  0  0  0  0  0  0  0  0  0  0
   -2.3184    0.8541    1.1446 C   0  0  0  0  0  0  0  0  0  0  0  0
   -0.5203    0.6926    0.9714 S   0  0  0  0  0  0  0  0  0  0  0  0
   -0.2688   -0.6453   -0.6501 P   0  0  1  0  0  5  0  0  0  0  0  0
   -0.9353   -2.4727   -0.4786 S   0  0  0  0  0  0  0  0  0  0  0  0
   -0.9870    0.0730   -1.9254 O   0  0  0  0  0  0  0  0  0  0  0  0
   -0.4069    1.2350   -2.4949 C   0  0  0  0  0  0  0  0  0  0  0  0
   -1.4880    2.0021   -3.2275 C   0  0  0  0  0  0  0  0  0  0  0  0
    1.2764   -0.5714   -1.1308 O   0  0  0  0  0  0  0  0  0  0  0  0
    2.3951   -0.8528   -0.3959 C   0  0  0  0  0  0  0  0  0  0  0  0
    2.3672   -1.4801    0.8500 C   0  0  0  0  0  0  0  0  0  0  0  0
    3.5617   -1.7323    1.5337 C   0  0  0  0  0  0  0  0  0  0  0  0
    4.7817   -1.3583    0.9739 C   0  0  0  0  0  0  0  0  0  0  0  0
    6.2431   -1.6699    1.8253 Cl  0  0  0  0  0  0  0  0  0  0  0  0
    4.8242   -0.7346   -0.2687 C   0  0  0  0  0  0  0  0  0  0  0  0
    3.6319   -0.4845   -0.9497 C   0  0  0  0  0  0  0  0  0  0  0  0
    3.7197    0.3085   -2.4840 Cl  0  0  0  0  0  0  0  0  0  0  0  0
  1  2  1  0
  2  3  1  0
  3  4  1  0
  4  5  1  0
  5  6  2  0
  5  7  1  6
  7  8  1  0
  8  9  1  0
  5 10  1  0
 10 11  1  0
 11 12  2  0
 12 13  1  0
 13 14  2  0
 14 15  1  0
 14 16  1  0
 16 17  2  0
 17 18  1  0
 17 11  1  0
M  END
