
     RDKit          3D

 12 13  0  0  0  0  0  0  0  0999 V2000
   -1.3692   -2.2200   -0.7077 O   0  0  0  0  0  0  0  0  0  0  0  0
   -1.1447   -1.0850    0.1292 C   0  0  2  0  0  0  0  0  0  0  0  0
   -2.1712   -0.0064   -0.1958 C   0  0  0  0  0  0  0  0  0  0  0  0
   -1.7989    1.2666    0.5405 C   0  0  0  0  0  0  0  0  0  0  0  0
   -0.5054    1.7379    0.0810 N   0  0  0  0  0  0  0  0  0  0  0  0
    0.5438    0.8004    0.0347 C   0  0  0  0  0  0  0  0  0  0  0  0
    1.8818    1.2252   -0.0998 C   0  0  0  0  0  0  0  0  0  0  0  0
    2.3273    3.0758   -0.0818 Br  0  0  0  0  0  0  0  0  0  0  0  0
    2.9272    0.3070   -0.2301 C   0  0  0  0  0  0  0  0  0  0  0  0
    2.6519   -1.0566   -0.2483 C   0  0  0  0  0  0  0  0  0  0  0  0
    1.3346   -1.4981   -0.1431 C   0  0  0  0  0  0  0  0  0  0  0  0
    0.2732   -0.5829   -0.0224 C   0  0  0  0  0  0  0  0  0  0  0  0
  2  1  1  6
  2  3  1  0
  3  4  1  0
  4  5  1  0
  5  6  1  0
  6  7  2  0
  7  8  1  0
  7  9  1  0
  9 10  2  0
 10 11  1  0
 11 12  2  0
 12  2  1  0
 12  6  1  0
M  END
