
     RDKit          3D

 12 12  0  0  0  0  0  0  0  0999 V2000
   -2.4012   -0.3498   -0.4689 C   0  0  0  0  0  0  0  0  0  0  0  0
   -1.4271   -0.2588    0.7007 C   0  0  1  0  0  0  0  0  0  0  0  0
    0.0188   -0.2993    0.2594 C   0  0  0  0  0  0  0  0  0  0  0  0
    0.6509   -1.5555    0.1739 C   0  0  0  0  0  0  0  0  0  0  0  0
    1.9923   -1.6713   -0.2073 C   0  0  0  0  0  0  0  0  0  0  0  0
    2.7383   -0.5356   -0.5139 C   0  0  0  0  0  0  0  0  0  0  0  0
    2.1419    0.7207   -0.4479 C   0  0  0  0  0  0  0  0  0  0  0  0
    0.7930    0.8288   -0.0709 C   0  0  0  0  0  0  0  0  0  0  0  0
    0.2325    2.1722   -0.0631 N   0  0  0  0  0  4  0  0  0  0  0  0
   -0.6496    2.4226   -0.8972 O   0  0  0  0  0  0  0  0  0  0  0  0
    0.7432    2.9918    0.7144 O   0  0  0  0  0  1  0  0  0  0  0  0
   -1.6680    0.9055    1.4769 O   0  0  0  0  0  0  0  0  0  0  0  0
  2  1  1  6
  2  3  1  0
  3  4  2  0
  4  5  1  0
  5  6  2  0
  6  7  1  0
  7  8  2  0
  8  9  1  0
  9 10  2  0
  9 11  1  0
  2 12  1  0
  8  3  1  0
M  CHG  2   9   1  11  -1
M  END
