
     RDKit          3D

 24 25  0  0  0  0  0  0  0  0999 V2000
    5.0419    1.6194   -1.3183 C   0  0  0  0  0  0  0  0  0  0  0  0
    3.5971    1.8640   -0.9267 C   0  0  0  0  0  0  0  0  0  0  0  0
    3.0507    0.6895   -0.3065 O   0  0  0  0  0  0  0  0  0  0  0  0
    2.4914   -0.2271   -1.1427 C   0  0  0  0  0  0  0  0  0  0  0  0
    2.4954   -0.1418   -2.3666 O   0  0  0  0  0  0  0  0  0  0  0  0
    1.8452   -1.3878   -0.3864 C   0  0  1  0  0  0  0  0  0  0  0  0
    2.2168   -2.5743   -0.9899 F   0  0  0  0  0  0  0  0  0  0  0  0
    2.2761   -1.4542    1.0811 C   0  0  0  0  0  0  0  0  0  0  0  0
    3.6905   -1.9074    1.3510 C   0  0  0  0  0  0  0  0  0  0  0  0
    1.5089   -1.2078    2.0142 O   0  0  0  0  0  0  0  0  0  0  0  0
    0.3259   -1.3017   -0.5688 C   0  0  1  0  0  0  0  0  0  0  0  0
   -0.4479   -2.5003   -0.0217 C   0  0  0  0  0  0  0  0  0  0  0  0
   -1.5345   -1.8913    0.8158 C   0  0  0  0  0  0  0  0  0  0  0  0
   -2.4114   -2.5366    1.3707 O   0  0  0  0  0  0  0  0  0  0  0  0
   -1.3633   -0.5397    0.8492 N   0  0  0  0  0  0  0  0  0  0  0  0
   -2.2224    0.3533    1.5954 C   0  0  0  0  0  0  0  0  0  0  0  0
   -3.3617    0.8592    0.7416 C   0  0  0  0  0  0  0  0  0  0  0  0
   -3.2200    2.0333   -0.0121 C   0  0  0  0  0  0  0  0  0  0  0  0
   -4.2641    2.4850   -0.8205 C   0  0  0  0  0  0  0  0  0  0  0  0
   -5.4555    1.7652   -0.8892 C   0  0  0  0  0  0  0  0  0  0  0  0
   -5.6031    0.5906   -0.1537 C   0  0  0  0  0  0  0  0  0  0  0  0
   -4.5605    0.1367    0.6553 C   0  0  0  0  0  0  0  0  0  0  0  0
   -0.2847   -0.1197    0.1310 C   0  0  0  0  0  0  0  0  0  0  0  0
    0.1264    1.0259    0.0219 O   0  0  0  0  0  0  0  0  0  0  0  0
  1  2  1  0
  2  3  1  0
  3  4  1  0
  4  5  2  0
  4  6  1  0
  6  7  1  6
  6  8  1  0
  8  9  1  0
  8 10  2  0
  6 11  1  0
 11 12  1  1
 12 13  1  0
 13 14  2  0
 13 15  1  0
 15 16  1  0
 16 17  1  0
 17 18  2  0
 18 19  1  0
 19 20  2  0
 20 21  1  0
 21 22  2  0
 15 23  1  0
 23 24  2  0
 23 11  1  0
 22 17  1  0
M  END
