
     RDKit          3D

 19 20  0  0  0  0  0  0  0  0999 V2000
   -1.5294   -2.0461    1.7930 O   0  0  0  0  0  0  0  0  0  0  0  0
   -1.6680   -1.1916    0.9300 C   0  0  0  0  0  0  0  0  0  0  0  0
   -3.0246   -0.7072    0.4396 C   0  0  1  0  0  0  0  0  0  0  0  0
   -3.6390    0.4614    1.6360 Cl  0  0  0  0  0  0  0  0  0  0  0  0
   -2.6763   -0.0940   -0.9159 C   0  0  1  0  0  0  0  0  0  0  0  0
   -3.6373    0.9314   -1.4937 C   0  0  0  0  0  0  0  0  0  0  0  0
   -5.2343    0.2087   -1.7920 Cl  0  0  0  0  0  0  0  0  0  0  0  0
   -1.2864    0.4762   -0.6778 C   0  0  0  0  0  0  0  0  0  0  0  0
   -0.6775   -0.4541    0.2472 N   0  0  0  0  0  0  0  0  0  0  0  0
    0.7246   -0.4987    0.4850 C   0  0  0  0  0  0  0  0  0  0  0  0
    1.3030   -1.4544    1.3285 C   0  0  0  0  0  0  0  0  0  0  0  0
    2.6837   -1.4880    1.5539 C   0  0  0  0  0  0  0  0  0  0  0  0
    3.5187   -0.5635    0.9359 C   0  0  0  0  0  0  0  0  0  0  0  0
    2.9784    0.4017    0.0810 C   0  0  0  0  0  0  0  0  0  0  0  0
    3.8644    1.4295   -0.5774 C   0  0  0  0  0  0  0  0  0  0  0  0
    3.9471    2.5801    0.1449 F   0  0  0  0  0  0  0  0  0  0  0  0
    3.4183    1.7966   -1.8122 F   0  0  0  0  0  0  0  0  0  0  0  0
    5.1452    1.0039   -0.7574 F   0  0  0  0  0  0  0  0  0  0  0  0
    1.5846    0.4278   -0.1287 C   0  0  0  0  0  0  0  0  0  0  0  0
  1  2  2  0
  2  3  1  0
  3  4  1  1
  3  5  1  0
  5  6  1  1
  6  7  1  0
  5  8  1  0
  8  9  1  0
  9 10  1  0
 10 11  2  0
 11 12  1  0
 12 13  2  0
 13 14  1  0
 14 15  1  0
 15 16  1  0
 15 17  1  0
 15 18  1  0
 14 19  2  0
  9  2  1  0
 19 10  1  0
M  END
