
     RDKit          3D

 16 17  0  0  0  0  0  0  0  0999 V2000
   -4.4399    0.3584   -0.0481 C   0  0  0  0  0  0  0  0  0  0  0  0
   -3.2107    1.1282    0.4087 C   0  0  0  0  0  0  0  0  0  0  0  0
   -1.9977    0.3572    0.2200 N   0  0  0  0  0  0  0  0  0  0  0  0
   -1.5035   -0.5081    1.1508 C   0  0  0  0  0  0  0  0  0  0  0  0
   -1.9979   -0.7799    2.2349 O   0  0  0  0  0  0  0  0  0  0  0  0
   -0.2247   -1.1047    0.6367 C   0  0  0  0  0  0  0  0  0  0  0  0
   -0.1414   -0.6297   -0.8119 C   0  0  2  0  0  0  0  0  0  0  0  0
    1.1853   -0.0164   -1.2999 C   0  0  2  0  0  0  0  0  0  0  0  0
    2.2085   -1.0745   -1.7223 C   0  0  0  0  0  0  0  0  0  0  0  0
    3.0782   -1.8689   -0.3378 S   0  0  0  0  0  0  0  0  0  0  0  0
    3.6392   -0.3946    0.5845 C   0  0  0  0  0  0  0  0  0  0  0  0
    3.2599    0.9270   -0.0558 C   0  0  0  0  0  0  0  0  0  0  0  0
    1.7718    0.9666   -0.2950 C   0  0  0  0  0  0  0  0  0  0  0  0
    1.0563    1.7740    0.2986 O   0  0  0  0  0  0  0  0  0  0  0  0
   -1.2806    0.3549   -0.9398 C   0  0  0  0  0  0  0  0  0  0  0  0
   -1.5316    0.9827   -1.9587 O   0  0  0  0  0  0  0  0  0  0  0  0
  1  2  1  0
  2  3  1  0
  3  4  1  0
  4  5  2  0
  4  6  1  0
  7  6  1  1
  7  8  1  0
  8  9  1  1
  9 10  1  0
 10 11  1  0
 11 12  1  0
 12 13  1  0
 13 14  2  0
  7 15  1  0
 15 16  2  0
 15  3  1  0
 13  8  1  0
M  END
