
     RDKit          3D

  7  6  0  0  0  0  0  0  0  0999 V2000
    1.8553   -0.2366   -1.0000 C   0  0  0  0  0  0  0  0  0  0  0  0
    0.4086   -0.6919   -0.8561 C   0  0  0  0  0  0  0  0  0  0  0  0
   -0.2401   -0.1952    0.4439 C   0  0  2  0  0  0  0  0  0  0  0  0
   -1.6059   -0.8433    0.6522 C   0  0  0  0  0  0  0  0  0  0  0  0
   -0.4206    1.3064    0.4329 C   0  0  0  0  0  0  0  0  0  0  0  0
   -0.6594    2.0127   -0.5318 O   0  0  0  0  0  0  0  0  0  0  0  0
   -0.3179    1.8443    1.6643 O   0  0  0  0  0  0  0  0  0  0  0  0
  1  2  1  0
  2  3  1  0
  3  4  1  6
  3  5  1  0
  5  6  2  0
  5  7  1  0
M  END
