
     RDKit          3D

 19 20  0  0  0  0  0  0  0  0999 V2000
   -0.1425    1.1947    2.2660 O   0  0  0  0  0  0  0  0  0  0  0  0
   -0.8996    0.7449    1.4179 C   0  0  0  0  0  0  0  0  0  0  0  0
   -2.4159    0.8456    1.5100 C   0  0  1  0  0  0  0  0  0  0  0  0
   -2.8852    2.4948    1.0613 Cl  0  0  0  0  0  0  0  0  0  0  0  0
   -2.8668   -0.2572    0.5531 C   0  0  1  0  0  0  0  0  0  0  0  0
   -4.3150   -0.2552    0.0774 C   0  0  0  0  0  0  0  0  0  0  0  0
   -4.6810    0.8417   -1.2695 Cl  0  0  0  0  0  0  0  0  0  0  0  0
   -1.7900   -0.2401   -0.5209 C   0  0  0  0  0  0  0  0  0  0  0  0
   -0.5831    0.0899    0.2098 N   0  0  0  0  0  0  0  0  0  0  0  0
    0.7189   -0.1150   -0.3256 C   0  0  0  0  0  0  0  0  0  0  0  0
    0.8859   -0.5776   -1.6405 C   0  0  0  0  0  0  0  0  0  0  0  0
    2.1577   -0.7843   -2.1843 C   0  0  0  0  0  0  0  0  0  0  0  0
    3.2931   -0.5352   -1.4208 C   0  0  0  0  0  0  0  0  0  0  0  0
    3.1647   -0.0809   -0.1041 C   0  0  0  0  0  0  0  0  0  0  0  0
    4.3816    0.2093    0.7400 C   0  0  0  0  0  0  0  0  0  0  0  0
    5.5267   -0.3331    0.2356 F   0  0  0  0  0  0  0  0  0  0  0  0
    4.6260    1.5425    0.8628 F   0  0  0  0  0  0  0  0  0  0  0  0
    4.2748   -0.2748    2.0085 F   0  0  0  0  0  0  0  0  0  0  0  0
    1.8761    0.1299    0.4262 C   0  0  0  0  0  0  0  0  0  0  0  0
  1  2  2  0
  2  3  1  0
  3  4  1  6
  3  5  1  0
  5  6  1  6
  6  7  1  0
  5  8  1  0
  8  9  1  0
  9 10  1  0
 10 11  2  0
 11 12  1  0
 12 13  2  0
 13 14  1  0
 14 15  1  0
 15 16  1  0
 15 17  1  0
 15 18  1  0
 14 19  2  0
  9  2  1  0
 19 10  1  0
M  END
