
     RDKit          3D

 27 29  0  0  0  0  0  0  0  0999 V2000
   -3.1815   -1.0241   -1.1817 C   0  0  0  0  0  0  0  0  0  0  0  0
   -2.2073    0.0850   -0.7568 C   0  0  1  0  0  0  0  0  0  0  0  0
   -2.2148    1.0010   -1.8774 O   0  0  0  0  0  0  0  0  0  0  0  0
   -2.6499    0.8681    0.5051 C   0  0  0  0  0  0  0  0  0  0  0  0
   -4.0420    1.2649    0.4843 N   0  0  0  0  0  0  0  0  0  0  0  0
   -5.0187    0.9452    1.3721 C   0  0  0  0  0  0  0  0  0  0  0  0
   -6.1477    1.4989    0.9942 N   0  0  0  0  0  0  0  0  0  0  0  0
   -5.8023    2.1599   -0.1499 C   0  0  0  0  0  0  0  0  0  0  0  0
   -4.5205    2.0394   -0.5108 N   0  0  0  0  0  0  0  0  0  0  0  0
   -0.7459   -0.3940   -0.5633 C   0  0  0  0  0  0  0  0  0  0  0  0
    0.2838    0.4209   -1.1009 C   0  0  0  0  0  0  0  0  0  0  0  0
    1.6375    0.0959   -0.9897 C   0  0  0  0  0  0  0  0  0  0  0  0
    2.0120   -1.0532   -0.3115 C   0  0  0  0  0  0  0  0  0  0  0  0
    3.3161   -1.4728   -0.1929 O   0  0  0  0  0  0  0  0  0  0  0  0
    4.2618   -0.5232    0.1172 C   0  0  0  0  0  0  0  0  0  0  0  0
    5.4172   -0.4944   -0.6652 C   0  0  0  0  0  0  0  0  0  0  0  0
    6.4288    0.4234   -0.3766 C   0  0  0  0  0  0  0  0  0  0  0  0
    6.2845    1.2951    0.7027 C   0  0  0  0  0  0  0  0  0  0  0  0
    7.5313    2.4259    1.0592 Cl  0  0  0  0  0  0  0  0  0  0  0  0
    5.1408    1.2525    1.5004 C   0  0  0  0  0  0  0  0  0  0  0  0
    4.1282    0.3348    1.2126 C   0  0  0  0  0  0  0  0  0  0  0  0
    1.0321   -1.8817    0.2275 C   0  0  0  0  0  0  0  0  0  0  0  0
   -0.3465   -1.5663    0.1378 C   0  0  0  0  0  0  0  0  0  0  0  0
   -1.2932   -2.5431    0.8044 C   0  0  0  0  0  0  0  0  0  0  0  0
   -2.2819   -1.9242    1.5086 F   0  0  0  0  0  0  0  0  0  0  0  0
   -1.9098   -3.3700   -0.0803 F   0  0  0  0  0  0  0  0  0  0  0  0
   -0.6824   -3.3621    1.7080 F   0  0  0  0  0  0  0  0  0  0  0  0
  2  1  1  6
  2  3  1  0
  2  4  1  0
  4  5  1  0
  5  6  1  0
  6  7  2  0
  7  8  1  0
  8  9  2  0
  2 10  1  0
 10 11  2  0
 11 12  1  0
 12 13  2  0
 13 14  1  0
 14 15  1  0
 15 16  2  0
 16 17  1  0
 17 18  2  0
 18 19  1  0
 18 20  1  0
 20 21  2  0
 13 22  1  0
 22 23  2  0
 23 24  1  0
 24 25  1  0
 24 26  1  0
 24 27  1  0
  9  5  1  0
 23 10  1  0
 21 15  1  0
M  END
