
     RDKit          3D

 10 10  0  0  0  0  0  0  0  0999 V2000
   -2.3245    1.0299    0.3068 C   0  0  0  0  0  0  0  0  0  0  0  0
   -1.5273   -0.2039    0.7076 C   0  0  2  0  0  0  0  0  0  0  0  0
   -0.0978   -0.1587    0.2115 C   0  0  0  0  0  0  0  0  0  0  0  0
    0.9618   -0.0098    1.1189 C   0  0  0  0  0  0  0  0  0  0  0  0
    2.2834    0.0349    0.6674 C   0  0  0  0  0  0  0  0  0  0  0  0
    2.5533   -0.0680   -0.6954 C   0  0  0  0  0  0  0  0  0  0  0  0
    1.5148   -0.2149   -1.6115 C   0  0  0  0  0  0  0  0  0  0  0  0
    0.1944   -0.2594   -1.1588 C   0  0  0  0  0  0  0  0  0  0  0  0
    4.3415   -0.0073   -1.3052 Br  0  0  0  0  0  0  0  0  0  0  0  0
   -2.1849   -1.3621    0.1972 O   0  0  0  0  0  0  0  0  0  0  0  0
  2  1  1  6
  2  3  1  0
  3  4  2  0
  4  5  1  0
  5  6  2  0
  6  7  1  0
  7  8  2  0
  6  9  1  0
  2 10  1  0
  8  3  1  0
M  END
