
     RDKit          3D

 19 20  0  0  0  0  0  0  0  0999 V2000
   -0.6021    2.0540   -1.3829 O   0  0  0  0  0  0  0  0  0  0  0  0
   -1.1773    1.1400   -0.8102 C   0  0  0  0  0  0  0  0  0  0  0  0
   -2.6888    1.0222   -0.6882 C   0  0  1  0  0  0  0  0  0  0  0  0
   -3.4525    1.3455   -2.2561 Cl  0  0  0  0  0  0  0  0  0  0  0  0
   -2.9109   -0.4142   -0.2184 C   0  0  2  0  0  0  0  0  0  0  0  0
   -4.1273   -0.6137    0.6782 C   0  0  0  0  0  0  0  0  0  0  0  0
   -5.6586   -0.4083   -0.1923 Cl  0  0  0  0  0  0  0  0  0  0  0  0
   -1.6310   -0.7135    0.5514 C   0  0  0  0  0  0  0  0  0  0  0  0
   -0.6076    0.0718   -0.0926 N   0  0  0  0  0  0  0  0  0  0  0  0
    0.7815   -0.1568    0.1198 C   0  0  0  0  0  0  0  0  0  0  0  0
    1.2146   -1.1138    1.0515 C   0  0  0  0  0  0  0  0  0  0  0  0
    2.5749   -1.3505    1.2744 C   0  0  0  0  0  0  0  0  0  0  0  0
    3.5341   -0.6364    0.5644 C   0  0  0  0  0  0  0  0  0  0  0  0
    3.1394    0.3164   -0.3806 C   0  0  0  0  0  0  0  0  0  0  0  0
    4.1614    1.1113   -1.1566 C   0  0  0  0  0  0  0  0  0  0  0  0
    3.8691    1.2011   -2.4832 F   0  0  0  0  0  0  0  0  0  0  0  0
    4.2767    2.3904   -0.7059 F   0  0  0  0  0  0  0  0  0  0  0  0
    5.4160    0.5808   -1.0913 F   0  0  0  0  0  0  0  0  0  0  0  0
    1.7650    0.5478   -0.5883 C   0  0  0  0  0  0  0  0  0  0  0  0
  1  2  2  0
  2  3  1  0
  3  4  1  6
  3  5  1  0
  5  6  1  1
  6  7  1  0
  5  8  1  0
  8  9  1  0
  9 10  1  0
 10 11  2  0
 11 12  1  0
 12 13  2  0
 13 14  1  0
 14 15  1  0
 15 16  1  0
 15 17  1  0
 15 18  1  0
 14 19  2  0
  9  2  1  0
 19 10  1  0
M  END
