
     RDKit          3D

 15 15  0  0  0  0  0  0  0  0999 V2000
   -3.4395   -0.6200   -0.5555 C   0  0  0  0  0  0  0  0  0  0  0  0
   -2.1190   -0.9634    0.0897 C   0  0  0  0  0  0  0  0  0  0  0  0
   -1.9853   -2.0271    0.6949 O   0  0  0  0  0  0  0  0  0  0  0  0
   -0.9661    0.0178   -0.1062 C   0  0  0  0  0  0  0  0  0  0  0  0
   -1.4124    1.4195    0.2891 C   0  0  0  0  0  0  0  0  0  0  0  0
   -1.5340    2.4473   -0.8071 C   0  0  0  0  0  0  0  0  0  0  0  0
   -1.7521    1.6798    1.4431 O   0  0  0  0  0  0  0  0  0  0  0  0
    0.2895   -0.3612    0.6982 C   0  0  1  0  0  0  0  0  0  0  0  0
    0.8081   -1.7878    0.4957 C   0  0  0  0  0  0  0  0  0  0  0  0
    2.3017   -1.6418    0.4730 C   0  0  0  0  0  0  0  0  0  0  0  0
    3.0904   -2.5738    0.4504 O   0  0  0  0  0  0  0  0  0  0  0  0
    2.6041   -0.3156    0.3836 N   0  0  0  0  0  0  0  0  0  0  0  0
    3.9378    0.1657    0.1145 C   0  0  0  0  0  0  0  0  0  0  0  0
    1.4862    0.4556    0.2684 C   0  0  0  0  0  0  0  0  0  0  0  0
    1.4394    1.6119   -0.1260 O   0  0  0  0  0  0  0  0  0  0  0  0
  1  2  1  0
  2  3  2  0
  2  4  1  0
  4  5  1  0
  5  6  1  0
  5  7  2  0
  8  4  1  6
  8  9  1  0
  9 10  1  0
 10 11  2  0
 10 12  1  0
 12 13  1  0
 12 14  1  0
 14 15  2  0
 14  8  1  0
M  END
