
     RDKit          3D

 14 14  0  0  0  0  0  0  0  0999 V2000
    0.1007   -2.7498    0.5731 C   0  0  0  0  0  0  0  0  0  0  0  0
   -0.7978   -1.5630    0.3337 C   0  0  0  0  0  0  0  0  0  0  0  0
   -2.0898   -1.7505    0.0022 C   0  0  0  0  0  0  0  0  0  0  0  0
   -3.0917   -0.6469   -0.1490 C   0  0  0  0  0  0  0  0  0  0  0  0
   -2.5930    0.6912    0.3965 C   0  0  0  0  0  0  0  0  0  0  0  0
   -1.1266    0.9884   -0.0010 C   0  0  0  0  0  0  0  0  0  0  0  0
   -0.2146   -0.1662    0.5592 C   0  0  2  0  0  0  0  0  0  0  0  0
    1.2104   -0.0673    0.0432 C   0  0  0  0  0  0  0  0  0  0  0  0
    2.2618    0.2285    0.8237 C   0  0  0  0  0  0  0  0  0  0  0  0
    3.6698    0.3227    0.3507 C   0  0  0  0  0  0  0  0  0  0  0  0
    4.5468    0.6000    1.1678 O   0  0  0  0  0  0  0  0  0  0  0  0
    3.9895    0.0797   -1.1003 C   0  0  0  0  0  0  0  0  0  0  0  0
   -0.7215    2.3383    0.6301 C   0  0  0  0  0  0  0  0  0  0  0  0
   -1.0319    1.1397   -1.5377 C   0  0  0  0  0  0  0  0  0  0  0  0
  1  2  1  0
  2  3  2  0
  3  4  1  0
  4  5  1  0
  5  6  1  0
  6  7  1  0
  7  8  1  6
  8  9  2  0
  9 10  1  0
 10 11  2  0
 10 12  1  0
  6 13  1  0
  6 14  1  0
  7  2  1  0
M  END
