
     RDKit          3D

 23 24  0  0  0  0  0  0  0  0999 V2000
    4.0378   -1.4797   -0.6159 F   0  0  0  0  0  0  0  0  0  0  0  0
    3.6508   -2.7841   -0.5900 C   0  0  0  0  0  0  0  0  0  0  0  0
    3.3688   -3.1237   -1.8758 F   0  0  0  0  0  0  0  0  0  0  0  0
    2.4308   -2.9884    0.3196 C   0  0  0  0  0  0  0  0  0  0  0  0
    2.7021   -2.5688    1.5852 F   0  0  0  0  0  0  0  0  0  0  0  0
    2.1684   -4.3207    0.4269 F   0  0  0  0  0  0  0  0  0  0  0  0
    1.2051   -2.3808   -0.0828 O   0  0  0  0  0  0  0  0  0  0  0  0
    1.2636   -0.9580   -0.1146 C   0  0  0  0  0  0  0  0  0  0  0  0
   -0.1602   -0.3993   -0.3030 C   0  0  1  0  0  0  0  0  0  0  0  0
   -1.0724   -0.8703    0.8509 C   0  0  0  0  0  0  0  0  0  0  0  0
   -2.4423   -0.4220    0.7237 N   0  0  0  0  0  0  0  0  0  0  0  0
   -3.3864   -0.8586   -0.1516 C   0  0  0  0  0  0  0  0  0  0  0  0
   -4.5117   -0.2175    0.0641 N   0  0  0  0  0  0  0  0  0  0  0  0
   -4.2000    0.6060    1.1085 C   0  0  0  0  0  0  0  0  0  0  0  0
   -2.9445    0.5094    1.5550 N   0  0  0  0  0  0  0  0  0  0  0  0
   -0.0850    1.1121   -0.5128 C   0  0  0  0  0  0  0  0  0  0  0  0
   -0.0115    1.9825    0.5916 C   0  0  0  0  0  0  0  0  0  0  0  0
    0.0684    3.3668    0.4163 C   0  0  0  0  0  0  0  0  0  0  0  0
    0.0893    3.9035   -0.8657 C   0  0  0  0  0  0  0  0  0  0  0  0
    0.1917    5.6072   -1.0781 Cl  0  0  0  0  0  0  0  0  0  0  0  0
    0.0364    3.0693   -1.9759 C   0  0  0  0  0  0  0  0  0  0  0  0
   -0.0454    1.6841   -1.8018 C   0  0  0  0  0  0  0  0  0  0  0  0
   -0.0734    0.7190   -3.2370 Cl  0  0  0  0  0  0  0  0  0  0  0  0
  1  2  1  0
  2  3  1  0
  2  4  1  0
  4  5  1  0
  4  6  1  0
  4  7  1  0
  7  8  1  0
  9  8  1  1
  9 10  1  0
 10 11  1  0
 11 12  1  0
 12 13  2  0
 13 14  1  0
 14 15  2  0
  9 16  1  0
 16 17  2  0
 17 18  1  0
 18 19  2  0
 19 20  1  0
 19 21  1  0
 21 22  2  0
 22 23  1  0
 15 11  1  0
 22 16  1  0
M  END
