
     RDKit          3D

  7  6  0  0  0  0  0  0  0  0999 V2000
   -2.5480   -0.4624   -0.6038 C   0  0  0  0  0  0  0  0  0  0  0  0
   -1.7604    0.2198    0.3511 O   0  0  0  0  0  0  0  0  0  0  0  0
   -0.2051    0.4517   -0.0059 P   0  0  1  0  0  5  0  0  0  0  0  0
   -0.0252    1.0223   -1.3802 O   0  0  0  0  0  0  0  0  0  0  0  0
    0.3088    1.4769    1.1641 N   0  0  0  0  0  0  0  0  0  0  0  0
    0.8573   -1.3227    0.1939 S   0  0  0  0  0  0  0  0  0  0  0  0
    2.4494   -0.9581   -0.5614 C   0  0  0  0  0  0  0  0  0  0  0  0
  1  2  1  0
  2  3  1  0
  3  4  2  0
  3  5  1  1
  3  6  1  0
  6  7  1  0
M  END
