
     RDKit          3D

 12 13  0  0  0  0  0  0  0  0999 V2000
   -1.2348   -2.3875   -0.2389 O   0  0  0  0  0  0  0  0  0  0  0  0
   -1.0812   -1.0035   -0.5568 C   0  0  1  0  0  0  0  0  0  0  0  0
   -2.1105   -0.2020    0.2310 C   0  0  0  0  0  0  0  0  0  0  0  0
   -1.9180    1.2763   -0.0482 C   0  0  0  0  0  0  0  0  0  0  0  0
   -0.5563    1.7028    0.2037 N   0  0  0  0  0  0  0  0  0  0  0  0
    0.5110    0.8057    0.1710 C   0  0  0  0  0  0  0  0  0  0  0  0
    1.8265    1.2334    0.4417 C   0  0  0  0  0  0  0  0  0  0  0  0
    2.1813    3.0257    0.9770 Br  0  0  0  0  0  0  0  0  0  0  0  0
    2.9133    0.3614    0.3322 C   0  0  0  0  0  0  0  0  0  0  0  0
    2.7066   -0.9548   -0.0681 C   0  0  0  0  0  0  0  0  0  0  0  0
    1.4166   -1.3963   -0.3541 C   0  0  0  0  0  0  0  0  0  0  0  0
    0.3158   -0.5304   -0.2315 C   0  0  0  0  0  0  0  0  0  0  0  0
  2  1  1  1
  2  3  1  0
  3  4  1  0
  4  5  1  0
  5  6  1  0
  6  7  2  0
  7  8  1  0
  7  9  1  0
  9 10  2  0
 10 11  1  0
 11 12  2  0
 12  2  1  0
 12  6  1  0
M  END
