
     RDKit          3D

 26 28  0  0  0  0  0  0  0  0999 V2000
   -2.2030    0.3758   -1.2081 C   0  0  0  0  0  0  0  0  0  0  0  0
   -3.4619    0.3606   -0.3711 C   0  0  0  0  0  0  0  0  0  0  0  0
   -4.0424    1.7368   -0.1492 C   0  0  0  0  0  0  0  0  0  0  0  0
   -4.3582   -0.8617   -0.4993 C   0  0  2  0  0  0  0  0  0  0  0  0
   -5.8229   -0.7156   -0.5051 C   0  0  0  0  0  0  0  0  0  0  0  0
   -6.7300   -1.4903    0.1096 C   0  0  0  0  0  0  0  0  0  0  0  0
   -6.2825   -2.8488    1.0740 Cl  0  0  0  0  0  0  0  0  0  0  0  0
   -8.4163   -1.1447   -0.0464 Cl  0  0  0  0  0  0  0  0  0  0  0  0
   -3.5840   -0.6269    0.7828 C   0  0  1  0  0  0  0  0  0  0  0  0
   -2.4496   -1.5094    1.1434 C   0  0  0  0  0  0  0  0  0  0  0  0
   -2.3700   -2.6664    0.7595 O   0  0  0  0  0  0  0  0  0  0  0  0
   -1.5510   -0.8446    1.9113 O   0  0  0  0  0  0  0  0  0  0  0  0
   -0.3505   -1.5650    2.2054 C   0  0  0  0  0  0  0  0  0  0  0  0
    0.6932   -1.2310    1.1714 C   0  0  0  0  0  0  0  0  0  0  0  0
    0.9478   -2.1075    0.1071 C   0  0  0  0  0  0  0  0  0  0  0  0
    1.8825   -1.7773   -0.8760 C   0  0  0  0  0  0  0  0  0  0  0  0
    2.5731   -0.5679   -0.8059 C   0  0  0  0  0  0  0  0  0  0  0  0
    2.3344    0.3053    0.2571 C   0  0  0  0  0  0  0  0  0  0  0  0
    2.9471    1.5335    0.3629 O   0  0  0  0  0  0  0  0  0  0  0  0
    4.3107    1.5782    0.1808 C   0  0  0  0  0  0  0  0  0  0  0  0
    4.8088    2.6076   -0.6185 C   0  0  0  0  0  0  0  0  0  0  0  0
    6.1843    2.7308   -0.8168 C   0  0  0  0  0  0  0  0  0  0  0  0
    7.0600    1.8343   -0.2033 C   0  0  0  0  0  0  0  0  0  0  0  0
    6.5627    0.8190    0.6146 C   0  0  0  0  0  0  0  0  0  0  0  0
    5.1871    0.6937    0.8147 C   0  0  0  0  0  0  0  0  0  0  0  0
    1.3842   -0.0125    1.2289 C   0  0  0  0  0  0  0  0  0  0  0  0
  1  2  1  0
  2  3  1  0
  2  4  1  0
  4  5  1  1
  5  6  2  3
  6  7  1  0
  6  8  1  0
  4  9  1  0
  9 10  1  6
 10 11  2  0
 10 12  1  0
 12 13  1  0
 13 14  1  0
 14 15  2  0
 15 16  1  0
 16 17  2  0
 17 18  1  0
 18 19  1  0
 19 20  1  0
 20 21  2  0
 21 22  1  0
 22 23  2  0
 23 24  1  0
 24 25  2  0
 18 26  2  0
  9  2  1  0
 26 14  1  0
 25 20  1  0
M  END
