
     RDKit          3D

 18 18  0  0  0  0  0  0  0  0999 V2000
    4.4537   -1.9198    0.5951 C   0  0  0  0  0  0  0  0  0  0  0  0
    3.9341   -0.5987    0.0472 C   0  0  0  0  0  0  0  0  0  0  0  0
    2.4413   -0.4429    0.3162 C   0  0  0  0  0  0  0  0  0  0  0  0
    1.8406    1.1324   -0.3464 S   0  0  0  0  0  0  0  0  0  0  0  0
   -0.2050    1.0697    0.0802 P   0  0  1  0  0  5  0  0  0  0  0  0
   -0.4168    0.6586    1.5115 O   0  0  0  0  0  0  0  0  0  0  0  0
   -0.8646    2.5041   -0.2696 O   0  0  0  0  0  0  0  0  0  0  0  0
   -0.7234    3.5311    0.6956 C   0  0  0  0  0  0  0  0  0  0  0  0
   -1.2948    4.8127    0.1258 C   0  0  0  0  0  0  0  0  0  0  0  0
   -0.9284    0.1005   -1.0018 O   0  0  0  0  0  0  0  0  0  0  0  0
   -1.7246   -0.9304   -0.5864 C   0  0  0  0  0  0  0  0  0  0  0  0
   -1.2463   -2.2230   -0.8088 C   0  0  0  0  0  0  0  0  0  0  0  0
   -2.0065   -3.3232   -0.4108 C   0  0  0  0  0  0  0  0  0  0  0  0
   -3.2466   -3.1231    0.1952 C   0  0  0  0  0  0  0  0  0  0  0  0
   -4.2755   -4.6153    0.7327 Br  0  0  0  0  0  0  0  0  0  0  0  0
   -3.7401   -1.8348    0.3977 C   0  0  0  0  0  0  0  0  0  0  0  0
   -2.9796   -0.7340   -0.0016 C   0  0  0  0  0  0  0  0  0  0  0  0
   -3.6540    0.8390    0.2066 Cl  0  0  0  0  0  0  0  0  0  0  0  0
  1  2  1  0
  2  3  1  0
  3  4  1  0
  4  5  1  0
  5  6  2  0
  5  7  1  1
  7  8  1  0
  8  9  1  0
  5 10  1  0
 10 11  1  0
 11 12  2  0
 12 13  1  0
 13 14  2  0
 14 15  1  0
 14 16  1  0
 16 17  2  0
 17 18  1  0
 17 11  1  0
M  END
