
     RDKit          3D

 13 14  0  0  0  0  0  0  0  0999 V2000
    3.1134    0.6891    0.6299 C   0  0  0  0  0  0  0  0  0  0  0  0
    2.3888   -0.4292    0.1564 O   0  0  0  0  0  0  0  0  0  0  0  0
    1.7016   -0.3292   -1.3088 P   0  0  1  0  0  5  0  0  0  0  0  0
    2.9016   -0.0559   -2.8014 S   0  0  0  0  0  0  0  0  0  0  0  0
    0.8385   -1.6922   -1.3661 O   0  0  0  0  0  0  0  0  0  0  0  0
   -0.0423   -1.9310   -0.2876 C   0  0  0  0  0  0  0  0  0  0  0  0
   -0.9308   -0.7540   -0.0065 C   0  0  0  0  0  0  0  0  0  0  0  0
   -2.1206   -0.9359    0.7142 C   0  0  0  0  0  0  0  0  0  0  0  0
   -2.9504    0.1498    1.0021 C   0  0  0  0  0  0  0  0  0  0  0  0
   -2.5977    1.4294    0.5783 C   0  0  0  0  0  0  0  0  0  0  0  0
   -1.4124    1.6239   -0.1279 C   0  0  0  0  0  0  0  0  0  0  0  0
   -0.5842    0.5375   -0.4067 C   0  0  0  0  0  0  0  0  0  0  0  0
    0.5621    0.7973   -1.1004 O   0  0  0  0  0  0  0  0  0  0  0  0
  1  2  1  0
  3  2  1  1
  3  4  2  0
  3  5  1  0
  5  6  1  0
  6  7  1  0
  7  8  2  0
  8  9  1  0
  9 10  2  0
 10 11  1  0
 11 12  2  0
 12 13  1  0
 13  3  1  0
 12  7  1  0
M  END
