
     RDKit          3D

 10 10  0  0  0  0  0  0  0  0999 V2000
   -2.4128    0.0667   -0.8557 C   0  0  0  0  0  0  0  0  0  0  0  0
   -1.5994   -0.4658    0.3162 C   0  0  1  0  0  0  0  0  0  0  0  0
   -0.1175   -0.1956    0.1655 C   0  0  0  0  0  0  0  0  0  0  0  0
    0.3897    1.1121    0.2438 C   0  0  0  0  0  0  0  0  0  0  0  0
    1.7574    1.3561    0.1020 C   0  0  0  0  0  0  0  0  0  0  0  0
    2.6282    0.2925   -0.1206 C   0  0  0  0  0  0  0  0  0  0  0  0
    2.1441   -1.0112   -0.2027 C   0  0  0  0  0  0  0  0  0  0  0  0
    0.7754   -1.2539   -0.0605 C   0  0  0  0  0  0  0  0  0  0  0  0
    4.4800    0.6197   -0.3131 Br  0  0  0  0  0  0  0  0  0  0  0  0
   -2.0840    0.1273    1.5195 O   0  0  0  0  0  0  0  0  0  0  0  0
  2  1  1  6
  2  3  1  0
  3  4  2  0
  4  5  1  0
  5  6  2  0
  6  7  1  0
  7  8  2  0
  6  9  1  0
  2 10  1  0
  8  3  1  0
M  END
