
     RDKit          3D

 24 26  0  0  0  0  0  0  0  0999 V2000
    5.0677   -0.9557    1.1979 C   0  0  0  0  0  0  0  0  0  0  0  0
    4.3239    0.2696    1.6513 C   0  0  0  0  0  0  0  0  0  0  0  0
    4.3489    0.5087    3.1369 C   0  0  0  0  0  0  0  0  0  0  0  0
    3.6703    1.1064    0.8195 C   0  0  0  0  0  0  0  0  0  0  0  0
    3.5593    0.9985   -0.6417 C   0  0  2  0  0  0  0  0  0  0  0  0
    2.3451    1.5022   -1.3942 C   0  0  2  0  0  0  0  0  0  0  0  0
    1.2141    2.1909   -0.7327 C   0  0  0  0  0  0  0  0  0  0  0  0
    1.3624    3.2212   -0.0943 O   0  0  0  0  0  0  0  0  0  0  0  0
    0.0327    1.5782   -0.9878 O   0  0  0  0  0  0  0  0  0  0  0  0
   -1.0795    2.2193   -0.3687 C   0  0  0  0  0  0  0  0  0  0  0  0
   -2.1688    1.2823   -0.3519 N   0  0  0  0  0  0  0  0  0  0  0  0
   -3.0496    1.1033   -1.3679 C   0  0  0  0  0  0  0  0  0  0  0  0
   -3.1230    1.6895   -2.4317 O   0  0  0  0  0  0  0  0  0  0  0  0
   -3.9543    0.0311   -0.9450 C   0  0  0  0  0  0  0  0  0  0  0  0
   -3.5734   -0.3763    0.2680 C   0  0  0  0  0  0  0  0  0  0  0  0
   -4.2366   -1.4386    1.0571 C   0  0  0  0  0  0  0  0  0  0  0  0
   -5.6087   -1.7845    0.4517 C   0  0  0  0  0  0  0  0  0  0  0  0
   -5.5708   -1.8518   -1.0829 C   0  0  0  0  0  0  0  0  0  0  0  0
   -5.0815   -0.5375   -1.7181 C   0  0  0  0  0  0  0  0  0  0  0  0
   -2.4152    0.4231    0.6700 C   0  0  0  0  0  0  0  0  0  0  0  0
   -1.8281    0.3050    1.7286 O   0  0  0  0  0  0  0  0  0  0  0  0
    2.5944    0.0052   -1.2702 C   0  0  0  0  0  0  0  0  0  0  0  0
    1.6978   -0.8417   -0.3937 C   0  0  0  0  0  0  0  0  0  0  0  0
    3.0601   -0.7195   -2.5102 C   0  0  0  0  0  0  0  0  0  0  0  0
  1  2  1  0
  2  3  1  0
  2  4  2  3
  5  4  1  1
  5  6  1  0
  6  7  1  1
  7  8  2  0
  7  9  1  0
  9 10  1  0
 10 11  1  0
 11 12  1  0
 12 13  2  0
 12 14  1  0
 14 15  2  0
 15 16  1  0
 16 17  1  0
 17 18  1  0
 18 19  1  0
 15 20  1  0
 20 21  2  0
  6 22  1  0
 22 23  1  0
 22 24  1  0
 22  5  1  0
 20 11  1  0
 19 14  1  0
M  END
