
     RDKit          3D

 10 10  0  0  0  0  0  0  0  0999 V2000
    2.8154   -0.9500   -0.2003 C   0  0  0  0  0  0  0  0  0  0  0  0
    2.4506   -0.0414    0.7912 C   0  0  0  0  0  0  0  0  0  0  0  0
    1.1967    0.5717    0.7525 C   0  0  0  0  0  0  0  0  0  0  0  0
    0.2931    0.2840   -0.2807 C   0  0  0  0  0  0  0  0  0  0  0  0
    0.6724   -0.6380   -1.2699 C   0  0  0  0  0  0  0  0  0  0  0  0
    1.9264   -1.2496   -1.2301 C   0  0  0  0  0  0  0  0  0  0  0  0
   -1.0627    0.9601   -0.3221 C   0  0  2  0  0  0  0  0  0  0  0  0
   -2.2454    0.0176    0.0053 C   0  0  0  0  0  0  0  0  0  0  0  0
   -2.3311   -0.3743    1.4175 N   0  0  0  0  0  0  0  0  0  0  0  0
   -1.2707    1.5343   -1.6189 O   0  0  0  0  0  0  0  0  0  0  0  0
  1  2  2  0
  2  3  1  0
  3  4  2  0
  4  5  1  0
  5  6  2  0
  4  7  1  0
  7  8  1  0
  8  9  1  0
  7 10  1  6
  6  1  1  0
M  END
