
     RDKit          3D

 27 28  0  0  0  0  0  0  0  0999 V2000
    5.4586   -1.9060    2.0258 C   0  0  0  0  0  0  0  0  0  0  0  0
    4.0192   -2.4033    2.0492 C   0  0  0  0  0  0  0  0  0  0  0  0
    3.2024   -1.9551    0.8339 C   0  0  0  0  0  0  0  0  0  0  0  0
    3.0956   -0.4403    0.6153 C   0  0  0  0  0  0  0  0  0  0  0  0
    2.5202    0.3676    1.7986 C   0  0  1  0  0  0  0  0  0  0  0  0
    2.5505    1.8849    1.5002 C   0  0  0  0  0  0  0  0  0  0  0  0
    1.6084    2.3705    0.4103 C   0  0  0  0  0  0  0  0  0  0  0  0
    1.1301   -0.1052    2.2584 C   0  0  0  0  0  0  0  0  0  0  0  0
    0.2848   -0.3851    1.1328 O   0  0  0  0  0  0  0  0  0  0  0  0
   -1.0128   -0.6230    1.4539 C   0  0  0  0  0  0  0  0  0  0  0  0
   -1.5254   -0.5129    2.5560 O   0  0  0  0  0  0  0  0  0  0  0  0
   -1.7271   -1.1133    0.2610 C   0  0  0  0  0  0  0  0  0  0  0  0
   -1.7441   -2.5325    0.1419 C   0  0  0  0  0  0  0  0  0  0  0  0
   -1.7265   -3.6930    0.0362 N   0  0  0  0  0  0  0  0  0  0  0  0
   -2.3056   -0.2635   -0.6271 C   0  0  0  0  0  0  0  0  0  0  0  0
   -2.2836    1.2125   -0.4166 C   0  0  0  0  0  0  0  0  0  0  0  0
   -1.7318    2.0428   -1.4006 C   0  0  0  0  0  0  0  0  0  0  0  0
   -1.7352    3.4310   -1.2427 C   0  0  0  0  0  0  0  0  0  0  0  0
   -2.2896    4.0025   -0.1006 C   0  0  0  0  0  0  0  0  0  0  0  0
   -2.8512    3.1885    0.8801 C   0  0  0  0  0  0  0  0  0  0  0  0
   -2.8586    1.8012    0.7206 C   0  0  0  0  0  0  0  0  0  0  0  0
   -2.9800   -0.8330   -1.8271 C   0  0  0  0  0  0  0  0  0  0  0  0
   -4.3722   -0.7449   -1.9453 C   0  0  0  0  0  0  0  0  0  0  0  0
   -5.0201   -1.2742   -3.0627 C   0  0  0  0  0  0  0  0  0  0  0  0
   -4.2825   -1.8876   -4.0709 C   0  0  0  0  0  0  0  0  0  0  0  0
   -2.8949   -1.9694   -3.9677 C   0  0  0  0  0  0  0  0  0  0  0  0
   -2.2440   -1.4398   -2.8521 C   0  0  0  0  0  0  0  0  0  0  0  0
  1  2  1  0
  2  3  1  0
  3  4  1  0
  5  4  1  6
  5  6  1  0
  6  7  1  0
  5  8  1  0
  8  9  1  0
  9 10  1  0
 10 11  2  0
 10 12  1  0
 12 13  1  0
 13 14  3  0
 12 15  2  3
 15 16  1  0
 16 17  2  0
 17 18  1  0
 18 19  2  0
 19 20  1  0
 20 21  2  0
 15 22  1  0
 22 23  2  0
 23 24  1  0
 24 25  2  0
 25 26  1  0
 26 27  2  0
 21 16  1  0
 27 22  1  0
M  END
