
     RDKit          3D

 15 14  0  0  0  0  0  0  0  0999 V2000
   -1.4610   -3.3899    1.0707 C   0  0  0  0  0  0  0  0  0  0  0  0
   -1.6511   -2.1792    0.1803 C   0  0  0  0  0  0  0  0  0  0  0  0
   -0.4100   -1.5026    0.0684 O   0  0  0  0  0  0  0  0  0  0  0  0
   -0.3875   -0.0244   -0.5853 P   0  0  0  0  0  5  0  0  0  0  0  0
   -0.9644    0.1114   -2.4258 S   0  0  0  0  0  0  0  0  0  0  0  0
    1.1177    0.4332   -0.2367 O   0  0  0  0  0  0  0  0  0  0  0  0
    2.1986   -0.2552   -0.8428 C   0  0  0  0  0  0  0  0  0  0  0  0
    3.4883    0.2272   -0.2112 C   0  0  0  0  0  0  0  0  0  0  0  0
   -1.2139    0.8044    0.5163 O   0  0  0  0  0  0  0  0  0  0  0  0
   -1.6494    2.1366    0.2902 C   0  0  1  0  0  0  0  0  0  0  0  0
   -3.0867    2.2958    1.3904 Cl  0  0  0  0  0  0  0  0  0  0  0  0
   -0.5927    3.2581    0.5487 C   0  0  0  0  0  0  0  0  0  0  0  0
   -1.3520    4.9019    0.5733 Cl  0  0  0  0  0  0  0  0  0  0  0  0
    0.6220    3.3338   -0.7801 Cl  0  0  0  0  0  0  0  0  0  0  0  0
    0.2740    3.0202    2.1008 Cl  0  0  0  0  0  0  0  0  0  0  0  0
  1  2  1  0
  2  3  1  0
  3  4  1  0
  4  5  2  0
  4  6  1  0
  6  7  1  0
  7  8  1  0
  4  9  1  0
  9 10  1  0
 10 11  1  1
 10 12  1  0
 12 13  1  0
 12 14  1  0
 12 15  1  0
M  END
