
     RDKit          3D

 11 12  0  0  0  0  0  0  0  0999 V2000
    0.2392    1.5750   -1.4849 C   0  0  0  0  0  0  0  0  0  0  0  0
    0.7342    0.3195   -1.9620 O   0  0  0  0  0  0  0  0  0  0  0  0
    0.1369    0.3130   -0.6513 C   0  0  0  0  0  0  0  0  0  0  0  0
   -1.0947   -0.5739   -0.5481 C   0  0  2  0  0  0  0  0  0  0  0  0
   -2.4126    0.0515   -0.9339 C   0  0  0  0  0  0  0  0  0  0  0  0
   -3.4987    0.2260   -0.1693 C   0  0  0  0  0  0  0  0  0  0  0  0
   -0.9945   -1.1105    0.8966 C   0  0  0  0  0  0  0  0  0  0  0  0
    0.5096   -1.2446    1.1225 C   0  0  0  0  0  0  0  0  0  0  0  0
    1.0734    0.0533    0.5154 C   0  0  1  0  0  0  0  0  0  0  0  0
    2.5427   -0.0798    0.2175 C   0  0  0  0  0  0  0  0  0  0  0  0
    3.5037    0.6325    0.8202 C   0  0  0  0  0  0  0  0  0  0  0  0
  1  2  1  0
  2  3  1  0
  3  4  1  0
  4  5  1  1
  5  6  2  0
  4  7  1  0
  7  8  1  0
  8  9  1  0
  9 10  1  6
 10 11  2  0
  3  1  1  0
  9  3  1  0
M  END
