
     RDKit          3D

 19 20  0  0  0  0  0  0  0  0999 V2000
    1.3114    2.1815   -1.9987 O   0  0  0  0  0  0  0  0  0  0  0  0
    1.5559    1.2857   -1.2048 C   0  0  0  0  0  0  0  0  0  0  0  0
    2.9383    0.9778   -0.6601 C   0  0  2  0  0  0  0  0  0  0  0  0
    4.1818    1.0756   -1.9143 Cl  0  0  0  0  0  0  0  0  0  0  0  0
    2.7974   -0.4379   -0.1149 C   0  0  1  0  0  0  0  0  0  0  0  0
    3.8184   -0.7447    0.9697 C   0  0  0  0  0  0  0  0  0  0  0  0
    3.5755   -2.3752    1.6390 Cl  0  0  0  0  0  0  0  0  0  0  0  0
    1.3542   -0.4516    0.3671 C   0  0  0  0  0  0  0  0  0  0  0  0
    0.6549    0.4140   -0.5584 N   0  0  0  0  0  0  0  0  0  0  0  0
   -0.7635    0.4246   -0.6775 C   0  0  0  0  0  0  0  0  0  0  0  0
   -1.4196    1.1977   -1.6427 C   0  0  0  0  0  0  0  0  0  0  0  0
   -2.8144    1.1959   -1.7536 C   0  0  0  0  0  0  0  0  0  0  0  0
   -3.5858    0.4190   -0.8962 C   0  0  0  0  0  0  0  0  0  0  0  0
   -2.9668   -0.3602    0.0858 C   0  0  0  0  0  0  0  0  0  0  0  0
   -3.7842   -1.2238    1.0139 C   0  0  0  0  0  0  0  0  0  0  0  0
   -3.2579   -1.2932    2.2692 F   0  0  0  0  0  0  0  0  0  0  0  0
   -5.0646   -0.7879    1.1722 F   0  0  0  0  0  0  0  0  0  0  0  0
   -3.8755   -2.5095    0.5768 F   0  0  0  0  0  0  0  0  0  0  0  0
   -1.5602   -0.3551    0.1783 C   0  0  0  0  0  0  0  0  0  0  0  0
  1  2  2  0
  2  3  1  0
  3  4  1  6
  3  5  1  0
  5  6  1  1
  6  7  1  0
  5  8  1  0
  8  9  1  0
  9 10  1  0
 10 11  2  0
 11 12  1  0
 12 13  2  0
 13 14  1  0
 14 15  1  0
 15 16  1  0
 15 17  1  0
 15 18  1  0
 14 19  2  0
  9  2  1  0
 19 10  1  0
M  END
