
     RDKit          3D

  9  8  0  0  0  0  0  0  0  0999 V2000
   -3.0162    0.5517   -1.1149 C   0  0  0  0  0  0  0  0  0  0  0  0
   -2.7069   -0.1708    0.1868 C   0  0  0  0  0  0  0  0  0  0  0  0
   -1.5894   -1.2091    0.0609 C   0  0  0  0  0  0  0  0  0  0  0  0
   -0.2321   -0.6766   -0.4110 C   0  0  0  0  0  0  0  0  0  0  0  0
    0.3677    0.3751    0.5260 C   0  0  0  0  0  0  0  0  0  0  0  0
    1.7464    0.8695    0.0726 C   0  0  2  0  0  0  0  0  0  0  0  0
    2.8098   -0.1869    0.1431 C   0  0  0  0  0  0  0  0  0  0  0  0
    3.5495   -0.5921   -0.8978 C   0  0  0  0  0  0  0  0  0  0  0  0
    2.1462    1.9216    0.9464 O   0  0  0  0  0  0  0  0  0  0  0  0
  1  2  1  0
  2  3  1  0
  3  4  1  0
  4  5  1  0
  5  6  1  0
  6  7  1  0
  7  8  2  0
  6  9  1  1
M  END
