
     RDKit          3D

 24 26  0  0  0  0  0  0  0  0999 V2000
    3.3337   -2.0257    2.8172 C   0  0  0  0  0  0  0  0  0  0  0  0
    2.3104   -1.0592    2.2911 C   0  0  0  0  0  0  0  0  0  0  0  0
    1.9387    0.0488    3.2388 C   0  0  0  0  0  0  0  0  0  0  0  0
    1.7493   -1.1467    1.0688 C   0  0  0  0  0  0  0  0  0  0  0  0
    2.0080   -2.1672    0.0422 C   0  0  1  0  0  0  0  0  0  0  0  0
    1.9270   -1.8680   -1.4416 C   0  0  1  0  0  0  0  0  0  0  0  0
    1.5494   -0.5464   -1.9906 C   0  0  0  0  0  0  0  0  0  0  0  0
    2.2794    0.0919   -2.7341 O   0  0  0  0  0  0  0  0  0  0  0  0
    0.2953   -0.1920   -1.6166 O   0  0  0  0  0  0  0  0  0  0  0  0
   -0.0741    1.0988   -2.0930 C   0  0  0  0  0  0  0  0  0  0  0  0
   -1.3493    1.4261   -1.5186 N   0  0  0  0  0  0  0  0  0  0  0  0
   -1.5136    1.9466   -0.2757 C   0  0  0  0  0  0  0  0  0  0  0  0
   -0.6683    2.2589    0.5418 O   0  0  0  0  0  0  0  0  0  0  0  0
   -2.9577    2.0746   -0.0688 C   0  0  0  0  0  0  0  0  0  0  0  0
   -3.5724    1.6260   -1.1655 C   0  0  0  0  0  0  0  0  0  0  0  0
   -5.0404    1.5678   -1.3562 C   0  0  0  0  0  0  0  0  0  0  0  0
   -5.7712    1.7927   -0.0201 C   0  0  0  0  0  0  0  0  0  0  0  0
   -5.1229    2.9019    0.8253 C   0  0  0  0  0  0  0  0  0  0  0  0
   -3.6399    2.6204    1.1274 C   0  0  0  0  0  0  0  0  0  0  0  0
   -2.5453    1.1844   -2.1117 C   0  0  0  0  0  0  0  0  0  0  0  0
   -2.7760    0.7036   -3.2051 O   0  0  0  0  0  0  0  0  0  0  0  0
    3.2806   -2.1164   -0.7894 C   0  0  0  0  0  0  0  0  0  0  0  0
    4.2546   -0.9699   -0.6335 C   0  0  0  0  0  0  0  0  0  0  0  0
    3.9613   -3.4299   -1.0897 C   0  0  0  0  0  0  0  0  0  0  0  0
  1  2  1  0
  2  3  1  0
  2  4  2  3
  5  4  1  1
  5  6  1  0
  6  7  1  1
  7  8  2  0
  7  9  1  0
  9 10  1  0
 10 11  1  0
 11 12  1  0
 12 13  2  0
 12 14  1  0
 14 15  2  0
 15 16  1  0
 16 17  1  0
 17 18  1  0
 18 19  1  0
 15 20  1  0
 20 21  2  0
  6 22  1  0
 22 23  1  0
 22 24  1  0
 22  5  1  0
 20 11  1  0
 19 14  1  0
M  END
