
     RDKit          3D

 26 28  0  0  0  0  0  0  0  0999 V2000
   -4.9276   -1.7717    1.6198 C   0  0  0  0  0  0  0  0  0  0  0  0
   -4.6437   -0.8946    0.4227 C   0  0  0  0  0  0  0  0  0  0  0  0
   -4.4690   -1.6799   -0.8562 C   0  0  0  0  0  0  0  0  0  0  0  0
   -5.2515    0.4956    0.3036 C   0  0  1  0  0  0  0  0  0  0  0  0
   -6.1993    0.9944    1.3140 C   0  0  0  0  0  0  0  0  0  0  0  0
   -6.2661    2.2301    1.8353 C   0  0  0  0  0  0  0  0  0  0  0  0
   -5.1700    3.4834    1.3759 Cl  0  0  0  0  0  0  0  0  0  0  0  0
   -7.4768    2.6183    3.0073 Cl  0  0  0  0  0  0  0  0  0  0  0  0
   -3.7880    0.3404    0.6693 C   0  0  2  0  0  0  0  0  0  0  0  0
   -2.7268    0.7516   -0.2834 C   0  0  0  0  0  0  0  0  0  0  0  0
   -2.9658    1.2476   -1.3750 O   0  0  0  0  0  0  0  0  0  0  0  0
   -1.4956    0.4898    0.2210 O   0  0  0  0  0  0  0  0  0  0  0  0
   -0.4309    0.8707   -0.6542 C   0  0  0  0  0  0  0  0  0  0  0  0
    0.8860    0.5374    0.0032 C   0  0  0  0  0  0  0  0  0  0  0  0
    1.1692    0.9800    1.3051 C   0  0  0  0  0  0  0  0  0  0  0  0
    2.3920    0.6808    1.9098 C   0  0  0  0  0  0  0  0  0  0  0  0
    3.3532   -0.0510    1.2150 C   0  0  0  0  0  0  0  0  0  0  0  0
    3.0944   -0.4670   -0.0929 C   0  0  0  0  0  0  0  0  0  0  0  0
    3.9914   -1.2143   -0.8225 O   0  0  0  0  0  0  0  0  0  0  0  0
    5.2896   -0.7575   -0.8856 C   0  0  0  0  0  0  0  0  0  0  0  0
    5.6137    0.5777   -1.1437 C   0  0  0  0  0  0  0  0  0  0  0  0
    6.9535    0.9630   -1.2273 C   0  0  0  0  0  0  0  0  0  0  0  0
    7.9643    0.0138   -1.0682 C   0  0  0  0  0  0  0  0  0  0  0  0
    7.6382   -1.3231   -0.8334 C   0  0  0  0  0  0  0  0  0  0  0  0
    6.3002   -1.7108   -0.7510 C   0  0  0  0  0  0  0  0  0  0  0  0
    1.8630   -0.1918   -0.6906 C   0  0  0  0  0  0  0  0  0  0  0  0
  1  2  1  0
  2  3  1  0
  2  4  1  0
  4  5  1  1
  5  6  2  3
  6  7  1  0
  6  8  1  0
  4  9  1  0
  9 10  1  6
 10 11  2  0
 10 12  1  0
 12 13  1  0
 13 14  1  0
 14 15  2  0
 15 16  1  0
 16 17  2  0
 17 18  1  0
 18 19  1  0
 19 20  1  0
 20 21  2  0
 21 22  1  0
 22 23  2  0
 23 24  1  0
 24 25  2  0
 18 26  2  0
  9  2  1  0
 26 14  1  0
 25 20  1  0
M  END
