
     RDKit          3D

 18 20  0  0  0  0  0  0  0  0999 V2000
   -3.1845    0.0959   -1.2481 C   0  0  0  0  0  0  0  0  0  0  0  0
   -2.0156    0.5638   -0.4296 C   0  0  1  0  0  0  0  0  0  0  0  0
   -2.2814    1.4534    0.7696 C   0  0  0  0  0  0  0  0  0  0  0  0
   -1.7794    0.0382    0.9831 C   0  0  1  0  0  0  0  0  0  0  0  0
   -2.7045   -0.9670    1.6055 C   0  0  0  0  0  0  0  0  0  0  0  0
   -0.2973   -0.1946    1.0620 C   0  0  0  0  0  0  0  0  0  0  0  0
    0.2053   -0.5494    2.1149 O   0  0  0  0  0  0  0  0  0  0  0  0
    0.2841    0.0975   -0.1607 N   0  0  0  0  0  0  0  0  0  0  0  0
    1.6869   -0.0373   -0.4397 C   0  0  0  0  0  0  0  0  0  0  0  0
    2.5472   -0.7288    0.4321 C   0  0  0  0  0  0  0  0  0  0  0  0
    3.9137   -0.8632    0.1568 C   0  0  0  0  0  0  0  0  0  0  0  0
    4.9230   -1.7269    1.2528 Cl  0  0  0  0  0  0  0  0  0  0  0  0
    4.4659   -0.3157   -0.9911 C   0  0  0  0  0  0  0  0  0  0  0  0
    3.6352    0.3685   -1.8656 C   0  0  0  0  0  0  0  0  0  0  0  0
    4.2993    1.0613   -3.2958 Cl  0  0  0  0  0  0  0  0  0  0  0  0
    2.2671    0.5064   -1.5995 C   0  0  0  0  0  0  0  0  0  0  0  0
   -0.6511    0.5812   -1.0608 C   0  0  0  0  0  0  0  0  0  0  0  0
   -0.5203    0.9735   -2.2079 O   0  0  0  0  0  0  0  0  0  0  0  0
  2  1  1  6
  2  3  1  0
  3  4  1  0
  4  5  1  1
  4  6  1  0
  6  7  2  0
  6  8  1  0
  8  9  1  0
  9 10  2  0
 10 11  1  0
 11 12  1  0
 11 13  2  0
 13 14  1  0
 14 15  1  0
 14 16  2  0
  8 17  1  0
 17 18  2  0
  4  2  1  0
 16  9  1  0
 17  2  1  0
M  END
