
     RDKit          3D

 15 14  0  0  0  0  0  0  0  0999 V2000
   -0.3453    3.8539   -0.0165 C   0  0  0  0  0  0  0  0  0  0  0  0
   -0.8063    2.5170   -0.5610 C   0  0  0  0  0  0  0  0  0  0  0  0
    0.2725    1.6030   -0.5178 O   0  0  0  0  0  0  0  0  0  0  0  0
    0.2331    0.2833    0.4079 P   0  0  0  0  0  5  0  0  0  0  0  0
   -0.3342    0.4923    2.2479 S   0  0  0  0  0  0  0  0  0  0  0  0
    1.7536   -0.2310    0.2074 O   0  0  0  0  0  0  0  0  0  0  0  0
    2.1244   -1.4987    0.7218 C   0  0  0  0  0  0  0  0  0  0  0  0
    3.4746   -1.8761    0.1477 C   0  0  0  0  0  0  0  0  0  0  0  0
   -0.5505   -0.7750   -0.5202 O   0  0  0  0  0  0  0  0  0  0  0  0
   -1.9683   -0.8356   -0.5133 C   0  0  1  0  0  0  0  0  0  0  0  0
   -2.5296   -0.1436   -2.0758 Cl  0  0  0  0  0  0  0  0  0  0  0  0
   -2.4779   -2.2899   -0.2882 C   0  0  0  0  0  0  0  0  0  0  0  0
   -4.2740   -2.3478   -0.2220 Cl  0  0  0  0  0  0  0  0  0  0  0  0
   -1.8655   -2.9290    1.2828 Cl  0  0  0  0  0  0  0  0  0  0  0  0
   -1.9128   -3.4162   -1.5717 Cl  0  0  0  0  0  0  0  0  0  0  0  0
  1  2  1  0
  2  3  1  0
  3  4  1  0
  4  5  2  0
  4  6  1  0
  6  7  1  0
  7  8  1  0
  4  9  1  0
  9 10  1  0
 10 11  1  6
 10 12  1  0
 12 13  1  0
 12 14  1  0
 12 15  1  0
M  END
