
     RDKit          3D

 11 11  0  0  0  0  0  0  0  0999 V2000
    3.8396    0.0206    0.1840 C   0  0  0  0  0  0  0  0  0  0  0  0
    2.3388    0.0217    0.1579 C   0  0  0  0  0  0  0  0  0  0  0  0
    1.6048    0.0998    1.2810 C   0  0  0  0  0  0  0  0  0  0  0  0
    0.0984    0.0600    1.3061 C   0  0  0  0  0  0  0  0  0  0  0  0
   -0.5526   -0.3879   -0.0301 C   0  0  2  0  0  0  0  0  0  0  0  0
    0.2035    0.2519   -1.2103 C   0  0  0  0  0  0  0  0  0  0  0  0
    1.6994   -0.0904   -1.2012 C   0  0  0  0  0  0  0  0  0  0  0  0
   -2.0890   -0.0950   -0.0352 C   0  0  0  0  0  0  0  0  0  0  0  0
   -2.4504    1.3956   -0.0203 C   0  0  0  0  0  0  0  0  0  0  0  0
   -2.8268   -0.7621   -1.2078 C   0  0  0  0  0  0  0  0  0  0  0  0
   -0.3985   -1.8204   -0.0969 O   0  0  0  0  0  0  0  0  0  0  0  0
  1  2  1  0
  2  3  2  0
  3  4  1  0
  4  5  1  0
  5  6  1  0
  6  7  1  0
  5  8  1  0
  8  9  1  0
  8 10  1  0
  5 11  1  6
  7  2  1  0
M  END
