
     RDKit          3D

 11 11  0  0  0  0  0  0  0  0999 V2000
    3.9097   -0.0093    0.1424 C   0  0  0  0  0  0  0  0  0  0  0  0
    2.4144    0.0821    0.0462 C   0  0  0  0  0  0  0  0  0  0  0  0
    1.7817    1.2483   -0.1689 C   0  0  0  0  0  0  0  0  0  0  0  0
    0.2869    1.3888   -0.2303 C   0  0  0  0  0  0  0  0  0  0  0  0
   -0.4761    0.1556    0.3062 C   0  0  2  0  0  0  0  0  0  0  0  0
    0.1918   -1.1267   -0.2203 C   0  0  0  0  0  0  0  0  0  0  0  0
    1.6606   -1.2124    0.2104 C   0  0  0  0  0  0  0  0  0  0  0  0
   -2.0107    0.2248    0.0428 C   0  0  0  0  0  0  0  0  0  0  0  0
   -2.3997    0.1332   -1.4378 C   0  0  0  0  0  0  0  0  0  0  0  0
   -2.7551   -0.8688    0.8219 C   0  0  0  0  0  0  0  0  0  0  0  0
   -2.5103    1.4676    0.5570 O   0  0  0  0  0  0  0  0  0  0  0  0
  1  2  1  0
  2  3  2  0
  3  4  1  0
  4  5  1  0
  5  6  1  0
  6  7  1  0
  5  8  1  6
  8  9  1  0
  8 10  1  0
  8 11  1  0
  7  2  1  0
M  END
