
     RDKit          3D

 18 19  0  0  0  0  0  0  0  0999 V2000
    4.6236   -1.7973    0.6638 C   0  0  0  0  0  0  0  0  0  0  0  0
    3.8855   -0.7227   -0.0902 C   0  0  0  0  0  0  0  0  0  0  0  0
    4.4688    0.2689   -0.5255 O   0  0  0  0  0  0  0  0  0  0  0  0
    2.3930   -0.9215   -0.2606 C   0  0  0  0  0  0  0  0  0  0  0  0
    1.7642    0.1489   -1.1484 C   0  0  2  0  0  0  0  0  0  0  0  0
    1.6635    1.5244   -0.4941 C   0  0  0  0  0  0  0  0  0  0  0  0
    0.2379    1.9371   -0.7113 C   0  0  0  0  0  0  0  0  0  0  0  0
   -0.2133    3.0337   -0.4163 O   0  0  0  0  0  0  0  0  0  0  0  0
   -0.4475    0.8905   -1.2524 N   0  0  0  0  0  0  0  0  0  0  0  0
   -1.8773    0.9064   -1.4753 C   0  0  0  0  0  0  0  0  0  0  0  0
   -2.6340    0.4334   -0.2553 C   0  0  0  0  0  0  0  0  0  0  0  0
   -2.9364   -0.9257   -0.0872 C   0  0  0  0  0  0  0  0  0  0  0  0
   -3.6137   -1.3642    1.0515 C   0  0  0  0  0  0  0  0  0  0  0  0
   -3.9885   -0.4515    2.0358 C   0  0  0  0  0  0  0  0  0  0  0  0
   -3.6831    0.8998    1.8850 C   0  0  0  0  0  0  0  0  0  0  0  0
   -3.0061    1.3409    0.7471 C   0  0  0  0  0  0  0  0  0  0  0  0
    0.3366   -0.2015   -1.4745 C   0  0  0  0  0  0  0  0  0  0  0  0
   -0.0288   -1.2919   -1.8897 O   0  0  0  0  0  0  0  0  0  0  0  0
  1  2  1  0
  2  3  2  0
  2  4  1  0
  5  4  1  1
  5  6  1  0
  6  7  1  0
  7  8  2  0
  7  9  1  0
  9 10  1  0
 10 11  1  0
 11 12  2  0
 12 13  1  0
 13 14  2  0
 14 15  1  0
 15 16  2  0
  9 17  1  0
 17 18  2  0
 17  5  1  0
 16 11  1  0
M  END
