
     RDKit          3D

 26 27  0  0  0  0  0  0  0  0999 V2000
    3.0406    4.4288    0.2919 N   0  0  0  0  0  0  0  0  0  0  0  0
    2.5904    3.3575    0.2731 C   0  0  0  0  0  0  0  0  0  0  0  0
    1.9969    2.0494    0.2544 C   0  0  0  0  0  0  0  0  0  0  0  0
    0.6674    1.9557    0.3763 N   0  0  0  0  0  0  0  0  0  0  0  0
    0.4056    0.6272    0.3380 N   0  0  0  0  0  0  0  0  0  0  0  0
   -0.9347    0.1816    0.3965 C   0  0  0  0  0  0  0  0  0  0  0  0
   -1.4713   -0.6213   -0.6215 C   0  0  0  0  0  0  0  0  0  0  0  0
   -0.6011   -1.0710   -2.0482 Cl  0  0  0  0  0  0  0  0  0  0  0  0
   -2.8100   -1.0310   -0.5604 C   0  0  0  0  0  0  0  0  0  0  0  0
   -3.6342   -0.6468    0.5063 C   0  0  0  0  0  0  0  0  0  0  0  0
   -5.0831   -1.0700    0.5494 C   0  0  0  0  0  0  0  0  0  0  0  0
   -5.5775   -1.1449    1.8145 F   0  0  0  0  0  0  0  0  0  0  0  0
   -5.2877   -2.2960   -0.0053 F   0  0  0  0  0  0  0  0  0  0  0  0
   -5.8899   -0.2093   -0.1252 F   0  0  0  0  0  0  0  0  0  0  0  0
   -3.0968    0.1715    1.5084 C   0  0  0  0  0  0  0  0  0  0  0  0
   -1.7588    0.5848    1.4603 C   0  0  0  0  0  0  0  0  0  0  0  0
   -1.1900    1.4917    2.8210 Cl  0  0  0  0  0  0  0  0  0  0  0  0
    1.5757   -0.1344    0.2206 C   0  0  0  0  0  0  0  0  0  0  0  0
    1.6007   -1.4947    0.2549 N   0  0  0  0  0  0  0  0  0  0  0  0
    2.6007    0.7860    0.1414 C   0  0  0  0  0  0  0  0  0  0  0  0
    4.3470    0.4359    0.0218 S   0  0  0  0  0  4  0  0  0  0  0  0
    5.0378    1.7521   -0.1881 O   0  0  0  0  0  0  0  0  0  0  0  0
    4.3199   -0.5105   -1.5218 C   0  0  0  0  0  0  0  0  0  0  0  0
    3.7915   -1.7522   -1.3313 F   0  0  0  0  0  0  0  0  0  0  0  0
    5.5681   -0.7047   -2.0190 F   0  0  0  0  0  0  0  0  0  0  0  0
    3.5885    0.0856   -2.4966 F   0  0  0  0  0  0  0  0  0  0  0  0
  1  2  3  0
  2  3  1  0
  3  4  2  0
  4  5  1  0
  5  6  1  0
  6  7  2  0
  7  8  1  0
  7  9  1  0
  9 10  2  0
 10 11  1  0
 11 12  1  0
 11 13  1  0
 11 14  1  0
 10 15  1  0
 15 16  2  0
 16 17  1  0
  5 18  1  0
 18 19  1  0
 18 20  2  0
 20 21  1  0
 21 22  2  0
 21 23  1  6
 23 24  1  0
 23 25  1  0
 23 26  1  0
 20  3  1  0
 16  6  1  0
M  END
