
     RDKit          3D

 20 21  0  0  0  0  0  0  0  0999 V2000
   -2.7413   -0.9880    1.4979 C   0  0  0  0  0  0  0  0  0  0  0  0
   -1.8022   -0.4528    0.3908 C   0  0  0  0  0  0  0  0  0  0  0  0
   -1.1357   -1.6704   -0.2723 C   0  0  0  0  0  0  0  0  0  0  0  0
   -2.6831    0.2437   -0.6641 C   0  0  0  0  0  0  0  0  0  0  0  0
   -0.7520    0.5351    1.0222 C   0  0  1  0  0  0  0  0  0  0  0  0
    0.0219   -0.1279    2.0237 O   0  0  0  0  0  0  0  0  0  0  0  0
    0.1831    1.2753    0.0530 C   0  0  0  0  0  0  0  0  0  0  0  0
    1.3845    0.8152   -0.3898 C   0  0  0  0  0  0  0  0  0  0  0  0
    2.1062   -0.4296   -0.1002 C   0  0  0  0  0  0  0  0  0  0  0  0
    2.2619   -1.3850   -1.1127 C   0  0  0  0  0  0  0  0  0  0  0  0
    2.9875   -2.5559   -0.8768 C   0  0  0  0  0  0  0  0  0  0  0  0
    3.5768   -2.7644    0.3681 C   0  0  0  0  0  0  0  0  0  0  0  0
    4.4687   -4.2063    0.6609 Cl  0  0  0  0  0  0  0  0  0  0  0  0
    3.4552   -1.8089    1.3740 C   0  0  0  0  0  0  0  0  0  0  0  0
    2.7293   -0.6389    1.1348 C   0  0  0  0  0  0  0  0  0  0  0  0
   -0.2314    2.5704   -0.3934 N   0  0  0  0  0  0  0  0  0  0  0  0
   -1.3472    3.3084   -0.0083 C   0  0  0  0  0  0  0  0  0  0  0  0
   -1.4200    4.4579   -0.6350 N   0  0  0  0  0  0  0  0  0  0  0  0
   -0.3146    4.4346   -1.4140 C   0  0  0  0  0  0  0  0  0  0  0  0
    0.4355    3.3420   -1.3142 N   0  0  0  0  0  0  0  0  0  0  0  0
  1  2  1  0
  2  3  1  0
  2  4  1  0
  2  5  1  0
  5  6  1  1
  5  7  1  0
  7  8  2  0
  8  9  1  0
  9 10  2  0
 10 11  1  0
 11 12  2  0
 12 13  1  0
 12 14  1  0
 14 15  2  0
  7 16  1  0
 16 17  1  0
 17 18  2  0
 18 19  1  0
 19 20  2  0
 15  9  1  0
 20 16  1  0
M  END
