
     RDKit          3D

 19 20  0  0  0  0  0  0  0  0999 V2000
   -0.3460   -2.4350   -0.8901 O   0  0  0  0  0  0  0  0  0  0  0  0
   -1.0236   -1.4658   -0.5806 C   0  0  0  0  0  0  0  0  0  0  0  0
   -2.5414   -1.4966   -0.5101 C   0  0  1  0  0  0  0  0  0  0  0  0
   -3.0014   -2.2902    1.0154 Cl  0  0  0  0  0  0  0  0  0  0  0  0
   -2.9088   -0.0161   -0.5861 C   0  0  1  0  0  0  0  0  0  0  0  0
   -4.2715    0.3537   -0.0213 C   0  0  0  0  0  0  0  0  0  0  0  0
   -4.6310    2.0746   -0.3164 Cl  0  0  0  0  0  0  0  0  0  0  0  0
   -1.7402    0.6591    0.1186 C   0  0  0  0  0  0  0  0  0  0  0  0
   -0.6019   -0.1786   -0.1950 N   0  0  0  0  0  0  0  0  0  0  0  0
    0.7413    0.2516   -0.0063 C   0  0  0  0  0  0  0  0  0  0  0  0
    1.0168    1.5024    0.5689 C   0  0  0  0  0  0  0  0  0  0  0  0
    2.3301    1.9417    0.7644 C   0  0  0  0  0  0  0  0  0  0  0  0
    3.3997    1.1379    0.3852 C   0  0  0  0  0  0  0  0  0  0  0  0
    3.1632   -0.1113   -0.1978 C   0  0  0  0  0  0  0  0  0  0  0  0
    4.3066   -1.0077   -0.6060 C   0  0  0  0  0  0  0  0  0  0  0  0
    5.5053   -0.3598   -0.6588 F   0  0  0  0  0  0  0  0  0  0  0  0
    4.4856   -2.0481    0.2531 F   0  0  0  0  0  0  0  0  0  0  0  0
    4.1334   -1.5601   -1.8387 F   0  0  0  0  0  0  0  0  0  0  0  0
    1.8339   -0.5422   -0.3814 C   0  0  0  0  0  0  0  0  0  0  0  0
  1  2  2  0
  2  3  1  0
  3  4  1  1
  3  5  1  0
  5  6  1  1
  6  7  1  0
  5  8  1  0
  8  9  1  0
  9 10  1  0
 10 11  2  0
 11 12  1  0
 12 13  2  0
 13 14  1  0
 14 15  1  0
 15 16  1  0
 15 17  1  0
 15 18  1  0
 14 19  2  0
  9  2  1  0
 19 10  1  0
M  END
