
     RDKit          3D

 14 15  0  0  0  0  0  0  0  0999 V2000
   -3.6960    0.5847   -0.7502 C   0  0  0  0  0  0  0  0  0  0  0  0
   -2.5071    0.0840   -0.1033 N   0  0  0  0  0  0  0  0  0  0  0  0
   -2.1591   -1.2345   -0.1009 C   0  0  0  0  0  0  0  0  0  0  0  0
   -2.8020   -2.1604   -0.5719 O   0  0  0  0  0  0  0  0  0  0  0  0
   -0.8057   -1.3826    0.5313 C   0  0  0  0  0  0  0  0  0  0  0  0
   -0.4490    0.0285    0.9948 C   0  0  1  0  0  0  0  0  0  0  0  0
    0.9487    0.5321    0.6495 C   0  0  2  0  0  0  0  0  0  0  0  0
    1.2979    0.6260   -0.8405 C   0  0  0  0  0  0  0  0  0  0  0  0
    2.8212    0.5606   -0.8638 C   0  0  0  0  0  0  0  0  0  0  0  0
    3.1756   -0.5095    0.1615 C   0  0  0  0  0  0  0  0  0  0  0  0
    2.0417   -0.3883    1.1474 C   0  0  0  0  0  0  0  0  0  0  0  0
    2.0012   -0.9817    2.2174 O   0  0  0  0  0  0  0  0  0  0  0  0
   -1.5186    0.8912    0.3768 C   0  0  0  0  0  0  0  0  0  0  0  0
   -1.4844    2.1115    0.3252 O   0  0  0  0  0  0  0  0  0  0  0  0
  1  2  1  0
  2  3  1  0
  3  4  2  0
  3  5  1  0
  6  5  1  6
  6  7  1  0
  7  8  1  6
  8  9  1  0
  9 10  1  0
 10 11  1  0
 11 12  2  0
  6 13  1  0
 13 14  2  0
 13  2  1  0
 11  7  1  0
M  END
