
     RDKit          3D

 17 17  0  0  0  0  0  0  0  0999 V2000
    3.2347    0.7569   -0.2179 C   0  0  0  0  0  0  0  0  0  0  0  0
    2.3291   -0.4332    0.0775 C   0  0  1  0  0  0  0  0  0  0  0  0
    2.5183   -0.8335    1.4321 O   0  0  0  0  0  0  0  0  0  0  0  0
    0.8329   -0.1357   -0.1662 C   0  0  0  0  0  0  0  0  0  0  0  0
    0.2505    0.9143    0.7942 C   0  0  0  0  0  0  0  0  0  0  0  0
   -1.2051    1.2874    0.4454 C   0  0  0  0  0  0  0  0  0  0  0  0
   -1.2735    2.5556   -0.3987 C   0  0  0  0  0  0  0  0  0  0  0  0
   -0.6306    2.4015   -1.5762 F   0  0  0  0  0  0  0  0  0  0  0  0
   -2.5552    2.8871   -0.6682 F   0  0  0  0  0  0  0  0  0  0  0  0
   -0.7106    3.6013    0.2446 F   0  0  0  0  0  0  0  0  0  0  0  0
   -1.9568    0.1370   -0.2503 C   0  0  0  0  0  0  0  0  0  0  0  0
   -1.4789   -1.2282    0.2514 C   0  0  0  0  0  0  0  0  0  0  0  0
   -2.3333   -2.3601   -0.3023 C   0  0  0  0  0  0  0  0  0  0  0  0
   -3.6266   -2.2083    0.0580 F   0  0  0  0  0  0  0  0  0  0  0  0
   -2.2844   -2.4031   -1.6510 F   0  0  0  0  0  0  0  0  0  0  0  0
   -1.9184   -3.5569    0.1659 F   0  0  0  0  0  0  0  0  0  0  0  0
    0.0073   -1.4423   -0.0894 C   0  0  0  0  0  0  0  0  0  0  0  0
  2  1  1  1
  2  3  1  0
  2  4  1  0
  4  5  1  0
  5  6  1  0
  6  7  1  0
  7  8  1  0
  7  9  1  0
  7 10  1  0
  6 11  1  0
 11 12  1  0
 12 13  1  0
 13 14  1  0
 13 15  1  0
 13 16  1  0
 12 17  1  0
 17  4  1  0
M  END
