
     RDKit          3D

 13 14  0  0  0  0  0  0  0  0999 V2000
    4.1721   -0.8669   -0.0304 C   0  0  0  0  0  0  0  0  0  0  0  0
    3.3507    0.0423   -0.7503 O   0  0  0  0  0  0  0  0  0  0  0  0
    2.0869    0.2898   -0.1266 C   0  0  0  0  0  0  0  0  0  0  0  0
    1.5267    1.5725   -0.7476 C   0  0  0  0  0  0  0  0  0  0  0  0
    0.1272    1.8929   -0.2328 C   0  0  0  0  0  0  0  0  0  0  0  0
   -0.8370    0.7236   -0.4824 C   0  0  0  0  0  0  0  0  0  0  0  0
   -0.2898   -0.5664    0.1665 C   0  0  0  0  0  0  0  0  0  0  0  0
    1.1227   -0.8823   -0.3456 C   0  0  0  0  0  0  0  0  0  0  0  0
   -1.2353   -1.7479   -0.0925 C   0  0  0  0  0  0  0  0  0  0  0  0
   -2.6563   -1.4481    0.3771 C   0  0  0  0  0  0  0  0  0  0  0  0
   -3.1968   -0.1591   -0.2409 C   0  0  0  0  0  0  0  0  0  0  0  0
   -2.2669    1.0321    0.0005 C   0  0  1  0  0  0  0  0  0  0  0  0
   -2.2815    1.3312    1.3947 O   0  0  0  0  0  0  0  0  0  0  0  0
  1  2  1  0
  2  3  1  0
  3  4  1  0
  4  5  1  0
  5  6  1  0
  6  7  1  0
  7  8  1  0
  7  9  1  0
  9 10  1  0
 10 11  1  0
 11 12  1  0
 12 13  1  1
  8  3  1  0
 12  6  1  0
M  END
