
     RDKit          3D

 22 24  0  0  0  0  0  0  0  0999 V2000
   -2.5680    2.9967   -0.2013 C   0  0  0  0  0  0  0  0  0  0  0  0
   -1.3221    2.1957    0.2306 C   0  0  0  0  0  0  0  0  0  0  0  0
   -1.1115    2.4772    1.7323 C   0  0  0  0  0  0  0  0  0  0  0  0
   -0.0794    2.6911   -0.5611 C   0  0  0  0  0  0  0  0  0  0  0  0
    0.4524    1.4949   -1.3482 C   0  0  0  0  0  0  0  0  0  0  0  0
    0.0086    0.2583   -0.5521 C   0  0  1  0  0  0  0  0  0  0  0  0
    0.9915   -0.0614    0.5918 C   0  0  0  0  0  0  0  0  0  0  0  0
    2.1966   -0.8453    0.1196 C   0  0  0  0  0  0  0  0  0  0  0  0
    3.4432   -0.2210   -0.0256 C   0  0  0  0  0  0  0  0  0  0  0  0
    4.5520   -0.9488   -0.4637 C   0  0  0  0  0  0  0  0  0  0  0  0
    4.4195   -2.3039   -0.7579 C   0  0  0  0  0  0  0  0  0  0  0  0
    5.7866   -3.1991   -1.2968 Cl  0  0  0  0  0  0  0  0  0  0  0  0
    3.1876   -2.9381   -0.6184 C   0  0  0  0  0  0  0  0  0  0  0  0
    2.0785   -2.2109   -0.1809 C   0  0  0  0  0  0  0  0  0  0  0  0
   -1.4300    0.6656   -0.1279 C   0  0  2  0  0  0  0  0  0  0  0  0
   -2.2392    0.5708   -1.3265 O   0  0  0  0  0  0  0  0  0  0  0  0
   -2.1045   -0.2054    0.9557 C   0  0  0  0  0  0  0  0  0  0  0  0
   -2.0873   -1.6287    0.6666 N   0  0  0  0  0  0  0  0  0  0  0  0
   -1.7304   -2.6434    1.4984 C   0  0  0  0  0  0  0  0  0  0  0  0
   -1.8225   -3.7861    0.8589 N   0  0  0  0  0  0  0  0  0  0  0  0
   -2.2723   -3.4149   -0.3756 C   0  0  0  0  0  0  0  0  0  0  0  0
   -2.4443   -2.1006   -0.5454 N   0  0  0  0  0  0  0  0  0  0  0  0
  1  2  1  0
  2  3  1  0
  2  4  1  0
  4  5  1  0
  5  6  1  0
  6  7  1  1
  7  8  1  0
  8  9  2  0
  9 10  1  0
 10 11  2  0
 11 12  1  0
 11 13  1  0
 13 14  2  0
  6 15  1  0
 15 16  1  6
 15 17  1  0
 17 18  1  0
 18 19  1  0
 19 20  2  0
 20 21  1  0
 21 22  2  0
 15  2  1  0
 22 18  1  0
 14  8  1  0
M  END
