
     RDKit          3D

 22 24  0  0  0  0  0  0  0  0999 V2000
   -0.9446   -3.2458    0.1162 C   0  0  0  0  0  0  0  0  0  0  0  0
   -1.4842   -1.9584    0.7889 C   0  0  0  0  0  0  0  0  0  0  0  0
   -2.9200   -2.2569    1.2458 C   0  0  0  0  0  0  0  0  0  0  0  0
   -0.6013   -1.5939    1.9925 C   0  0  0  0  0  0  0  0  0  0  0  0
    0.6341   -0.9788    1.3558 C   0  0  0  0  0  0  0  0  0  0  0  0
    0.0925   -0.1265    0.1935 C   0  0  1  0  0  0  0  0  0  0  0  0
    1.0548   -0.0627   -1.0032 C   0  0  0  0  0  0  0  0  0  0  0  0
    2.3368    0.6729   -0.6847 C   0  0  0  0  0  0  0  0  0  0  0  0
    3.5305   -0.0294   -0.4705 C   0  0  0  0  0  0  0  0  0  0  0  0
    4.7083    0.6564   -0.1654 C   0  0  0  0  0  0  0  0  0  0  0  0
    4.6969    2.0466   -0.0737 C   0  0  0  0  0  0  0  0  0  0  0  0
    6.1488    2.8897    0.3039 Cl  0  0  0  0  0  0  0  0  0  0  0  0
    3.5183    2.7579   -0.2851 C   0  0  0  0  0  0  0  0  0  0  0  0
    2.3408    2.0725   -0.5901 C   0  0  0  0  0  0  0  0  0  0  0  0
   -1.3346   -0.6931   -0.1385 C   0  0  1  0  0  0  0  0  0  0  0  0
   -1.4361   -1.0945   -1.5098 O   0  0  0  0  0  0  0  0  0  0  0  0
   -2.4199    0.3894    0.1171 C   0  0  0  0  0  0  0  0  0  0  0  0
   -2.2023    1.6465   -0.5744 N   0  0  0  0  0  0  0  0  0  0  0  0
   -2.2125    1.8892   -1.9125 C   0  0  0  0  0  0  0  0  0  0  0  0
   -2.0299    3.1720   -2.1279 N   0  0  0  0  0  0  0  0  0  0  0  0
   -1.9238    3.6824   -0.8666 C   0  0  0  0  0  0  0  0  0  0  0  0
   -2.0276    2.7884    0.1200 N   0  0  0  0  0  0  0  0  0  0  0  0
  1  2  1  0
  2  3  1  0
  2  4  1  0
  4  5  1  0
  5  6  1  0
  6  7  1  6
  7  8  1  0
  8  9  2  0
  9 10  1  0
 10 11  2  0
 11 12  1  0
 11 13  1  0
 13 14  2  0
  6 15  1  0
 15 16  1  6
 15 17  1  0
 17 18  1  0
 18 19  1  0
 19 20  2  0
 20 21  1  0
 21 22  2  0
 15  2  1  0
 22 18  1  0
 14  8  1  0
M  END
