
     RDKit          3D

 18 18  0  0  0  0  0  0  0  0999 V2000
   -2.8932   -2.6041   -0.8481 C   0  0  0  0  0  0  0  0  0  0  0  0
   -2.8806   -1.6907    0.3603 C   0  0  0  0  0  0  0  0  0  0  0  0
   -1.7591   -0.8277    0.2592 O   0  0  0  0  0  0  0  0  0  0  0  0
   -1.7262    0.5018    1.1869 P   0  0  0  0  0  5  0  0  0  0  0  0
   -1.8813    0.2388    3.1012 S   0  0  0  0  0  0  0  0  0  0  0  0
   -2.9255    1.3787    0.5370 O   0  0  0  0  0  0  0  0  0  0  0  0
   -2.8227    1.7897   -0.8160 C   0  0  0  0  0  0  0  0  0  0  0  0
   -4.1923    2.2280   -1.2919 C   0  0  0  0  0  0  0  0  0  0  0  0
   -0.4177    1.2801    0.6481 O   0  0  0  0  0  0  0  0  0  0  0  0
    0.8734    0.8410    0.7152 C   0  0  0  0  0  0  0  0  0  0  0  0
    1.2606   -0.4200    1.1605 C   0  0  0  0  0  0  0  0  0  0  0  0
    2.6166   -0.7669    1.1840 C   0  0  0  0  0  0  0  0  0  0  0  0
    3.5897    0.1404    0.7511 C   0  0  0  0  0  0  0  0  0  0  0  0
    5.3361   -0.3253    0.7946 S   0  0  0  0  0  4  0  0  0  0  0  0
    5.3064   -1.4519   -0.6234 C   0  0  0  0  0  0  0  0  0  0  0  0
    6.1003    0.8961    0.3738 O   0  0  0  0  0  0  0  0  0  0  0  0
    3.1948    1.4053    0.3090 C   0  0  0  0  0  0  0  0  0  0  0  0
    1.8416    1.7512    0.2888 C   0  0  0  0  0  0  0  0  0  0  0  0
  1  2  1  0
  2  3  1  0
  3  4  1  0
  4  5  2  0
  4  6  1  0
  6  7  1  0
  7  8  1  0
  4  9  1  0
  9 10  1  0
 10 11  2  0
 11 12  1  0
 12 13  2  0
 13 14  1  0
 14 15  1  6
 14 16  2  0
 13 17  1  0
 17 18  2  0
 18 10  1  0
M  END
