
     RDKit          3D

 13 14  0  0  0  0  0  0  0  0999 V2000
    3.7638    0.0384   -0.7921 C   0  0  0  0  0  0  0  0  0  0  0  0
    2.4821   -0.5192   -0.5338 O   0  0  0  0  0  0  0  0  0  0  0  0
    1.4918    0.3353   -0.1286 C   0  0  0  0  0  0  0  0  0  0  0  0
    1.6607    1.7062    0.0833 C   0  0  0  0  0  0  0  0  0  0  0  0
    0.5906    2.4960    0.5112 C   0  0  0  0  0  0  0  0  0  0  0  0
   -0.6588    1.9251    0.7429 C   0  0  0  0  0  0  0  0  0  0  0  0
   -0.8523    0.5558    0.5385 C   0  0  0  0  0  0  0  0  0  0  0  0
    0.2270   -0.2393    0.0852 C   0  0  0  0  0  0  0  0  0  0  0  0
   -0.0355   -1.7168   -0.1050 C   0  0  0  0  0  0  0  0  0  0  0  0
   -1.3684   -1.9673   -0.8183 C   0  0  0  0  0  0  0  0  0  0  0  0
   -2.5183   -1.0590   -0.3664 C   0  0  0  0  0  0  0  0  0  0  0  0
   -2.1648   -0.1482    0.8093 C   0  0  2  0  0  0  0  0  0  0  0  0
   -3.2424    0.7593    1.0125 O   0  0  0  0  0  0  0  0  0  0  0  0
  1  2  1  0
  2  3  1  0
  3  4  2  0
  4  5  1  0
  5  6  2  0
  6  7  1  0
  7  8  2  0
  8  9  1  0
  9 10  1  0
 10 11  1  0
 11 12  1  0
 12 13  1  6
  8  3  1  0
 12  7  1  0
M  END
