
     RDKit          3D

 10 10  0  0  0  0  0  0  0  0999 V2000
    3.0928   -0.2868   -0.7795 C   0  0  0  0  0  0  0  0  0  0  0  0
    2.2077   -1.3366   -1.0146 C   0  0  0  0  0  0  0  0  0  0  0  0
    0.8921   -1.2587   -0.5539 C   0  0  0  0  0  0  0  0  0  0  0  0
    0.4455   -0.1316    0.1522 C   0  0  0  0  0  0  0  0  0  0  0  0
    1.3483    0.9197    0.3785 C   0  0  0  0  0  0  0  0  0  0  0  0
    2.6638    0.8411   -0.0832 C   0  0  0  0  0  0  0  0  0  0  0  0
   -0.9843   -0.0124    0.6332 C   0  0  1  0  0  0  0  0  0  0  0  0
   -1.8739    0.7023   -0.4093 C   0  0  0  0  0  0  0  0  0  0  0  0
   -3.3025    0.6491   -0.0454 N   0  0  0  0  0  0  0  0  0  0  0  0
   -1.5343   -1.3047    0.9145 O   0  0  0  0  0  0  0  0  0  0  0  0
  1  2  2  0
  2  3  1  0
  3  4  2  0
  4  5  1  0
  5  6  2  0
  4  7  1  0
  7  8  1  0
  8  9  1  0
  7 10  1  6
  6  1  1  0
M  END
