
     RDKit          3D

 26 27  0  0  0  0  0  0  0  0999 V2000
    4.2137   -1.6194   -2.6633 N   0  0  0  0  0  0  0  0  0  0  0  0
    3.3747   -1.2857   -1.9332 C   0  0  0  0  0  0  0  0  0  0  0  0
    2.4029   -0.8721   -0.9649 C   0  0  0  0  0  0  0  0  0  0  0  0
    1.1141   -0.7959   -1.3118 N   0  0  0  0  0  0  0  0  0  0  0  0
    0.4715   -0.4165   -0.1721 N   0  0  0  0  0  0  0  0  0  0  0  0
   -0.9317   -0.2488   -0.1812 C   0  0  0  0  0  0  0  0  0  0  0  0
   -1.5276    0.5986   -1.1303 C   0  0  0  0  0  0  0  0  0  0  0  0
   -0.6287    1.5831   -2.2359 Cl  0  0  0  0  0  0  0  0  0  0  0  0
   -2.9199    0.7559   -1.1569 C   0  0  0  0  0  0  0  0  0  0  0  0
   -3.7387    0.0794   -0.2435 C   0  0  0  0  0  0  0  0  0  0  0  0
   -5.2398    0.2338   -0.2915 C   0  0  0  0  0  0  0  0  0  0  0  0
   -5.8215    0.1047    0.9321 F   0  0  0  0  0  0  0  0  0  0  0  0
   -5.8256   -0.6978   -1.0895 F   0  0  0  0  0  0  0  0  0  0  0  0
   -5.6345    1.4455   -0.7677 F   0  0  0  0  0  0  0  0  0  0  0  0
   -3.1382   -0.7774    0.6888 C   0  0  0  0  0  0  0  0  0  0  0  0
   -1.7472   -0.9458    0.7229 C   0  0  0  0  0  0  0  0  0  0  0  0
   -1.1517   -2.1257    1.8400 Cl  0  0  0  0  0  0  0  0  0  0  0  0
    1.3646   -0.2340    0.8880 C   0  0  0  0  0  0  0  0  0  0  0  0
    1.0258    0.2071    2.1292 N   0  0  0  0  0  0  0  0  0  0  0  0
    2.6087   -0.5201    0.3744 C   0  0  0  0  0  0  0  0  0  0  0  0
    4.1702   -0.4592    1.2394 S   0  0  0  0  0  4  0  0  0  0  0  0
    3.8444   -0.4673    2.7098 O   0  0  0  0  0  0  0  0  0  0  0  0
    4.6489    1.2134    0.7165 C   0  0  0  0  0  0  0  0  0  0  0  0
    4.7562    1.2902   -0.6358 F   0  0  0  0  0  0  0  0  0  0  0  0
    3.7581    2.1625    1.0960 F   0  0  0  0  0  0  0  0  0  0  0  0
    5.8560    1.5699    1.2238 F   0  0  0  0  0  0  0  0  0  0  0  0
  1  2  3  0
  2  3  1  0
  3  4  2  0
  4  5  1  0
  5  6  1  0
  6  7  2  0
  7  8  1  0
  7  9  1  0
  9 10  2  0
 10 11  1  0
 11 12  1  0
 11 13  1  0
 11 14  1  0
 10 15  1  0
 15 16  2  0
 16 17  1  0
  5 18  1  0
 18 19  1  0
 18 20  2  0
 20 21  1  0
 21 22  2  0
 21 23  1  6
 23 24  1  0
 23 25  1  0
 23 26  1  0
 20  3  1  0
 16  6  1  0
M  END
