
     RDKit          3D

 21 21  0  0  0  0  0  0  0  0999 V2000
   -3.2130   -3.7908    1.1185 C   0  0  0  0  0  0  0  0  0  0  0  0
   -3.2171   -2.2813    1.2934 C   0  0  0  0  0  0  0  0  0  0  0  0
   -3.0504   -1.5635   -0.0384 C   0  0  0  0  0  0  0  0  0  0  0  0
   -3.0956   -0.1653    0.1946 O   0  0  0  0  0  0  0  0  0  0  0  0
   -2.1609    0.8363   -0.6806 P   0  0  0  0  0  5  0  0  0  0  0  0
   -2.4960    0.7376   -2.6034 S   0  0  0  0  0  0  0  0  0  0  0  0
   -2.6559    2.2515   -0.0477 O   0  0  0  0  0  0  0  0  0  0  0  0
   -4.0163    2.6392   -0.1747 C   0  0  0  0  0  0  0  0  0  0  0  0
   -4.4307    3.3554    1.1024 C   0  0  0  0  0  0  0  0  0  0  0  0
   -5.8699    3.8349    1.0404 C   0  0  0  0  0  0  0  0  0  0  0  0
   -0.1938    0.6183    0.0295 S   0  0  0  0  0  0  0  0  0  0  0  0
    0.5910   -0.5092   -1.1485 C   0  0  0  0  0  0  0  0  0  0  0  0
    1.7653   -1.2182   -0.4961 C   0  0  0  0  0  0  0  0  0  0  0  0
    1.5984   -2.3539   -0.0365 O   0  0  0  0  0  0  0  0  0  0  0  0
    3.0000   -0.5719   -0.4366 N   0  0  0  0  0  0  0  0  0  0  0  0
    3.2246    0.8234   -0.8315 C   0  0  0  0  0  0  0  0  0  0  0  0
    4.6581    1.0578   -1.2949 C   0  0  0  0  0  0  0  0  0  0  0  0
    5.6836    0.6921   -0.2218 C   0  0  0  0  0  0  0  0  0  0  0  0
    5.1239   -0.2620    0.8336 C   0  0  0  0  0  0  0  0  0  0  0  0
    4.1020   -1.2595    0.2657 C   0  0  2  0  0  0  0  0  0  0  0  0
    4.7686   -2.2957   -0.6453 C   0  0  0  0  0  0  0  0  0  0  0  0
  1  2  1  0
  2  3  1  0
  3  4  1  0
  4  5  1  0
  5  6  2  0
  5  7  1  0
  7  8  1  0
  8  9  1  0
  9 10  1  0
  5 11  1  0
 11 12  1  0
 12 13  1  0
 13 14  2  0
 13 15  1  0
 15 16  1  0
 16 17  1  0
 17 18  1  0
 18 19  1  0
 19 20  1  0
 20 21  1  6
 20 15  1  0
M  END
