
     RDKit          3D

  6  5  0  0  0  0  0  0  0  0999 V2000
   -1.7126   -0.6212    1.5034 Cl  0  0  0  0  0  0  0  0  0  0  0  0
   -1.1460   -0.6271   -0.1879 C   0  0  0  0  0  0  0  0  0  0  0  0
   -0.0305    0.3794   -0.4740 C   0  0  1  0  0  0  0  0  0  0  0  0
   -0.7633    2.2080   -0.4010 Br  0  0  0  0  0  0  0  0  0  0  0  0
    1.1849    0.3177    0.4370 C   0  0  0  0  0  0  0  0  0  0  0  0
    2.1836   -1.3322    0.1464 Br  0  0  0  0  0  0  0  0  0  0  0  0
  1  2  1  0
  2  3  1  0
  3  4  1  1
  3  5  1  0
  5  6  1  0
M  END
