
     RDKit          3D

 11 12  0  0  0  0  0  0  0  0999 V2000
    0.4008    2.2173   -0.2327 C   0  0  0  0  0  0  0  0  0  0  0  0
   -0.2422    0.8560   -0.1207 C   0  0  2  0  0  0  0  0  0  0  0  0
   -1.2675    0.7078    1.0270 C   0  0  0  0  0  0  0  0  0  0  0  0
   -1.4324   -0.8239    1.1454 C   0  0  0  0  0  0  0  0  0  0  0  0
   -0.5071   -1.3677    0.0270 C   0  0  2  0  0  0  0  0  0  0  0  0
    0.6891   -0.3757    0.0503 C   0  0  0  0  0  0  0  0  0  0  0  0
    1.4949   -0.4041    1.3637 C   0  0  0  0  0  0  0  0  0  0  0  0
    1.7051   -0.5778   -1.0925 C   0  0  0  0  0  0  0  0  0  0  0  0
   -1.2086   -1.0864   -1.3249 C   0  0  0  0  0  0  0  0  0  0  0  0
   -1.0346    0.4191   -1.3571 C   0  0  0  0  0  0  0  0  0  0  0  0
   -1.4789    1.1554   -2.2241 O   0  0  0  0  0  0  0  0  0  0  0  0
  2  1  1  6
  2  3  1  0
  3  4  1  0
  5  4  1  1
  5  6  1  0
  6  7  1  0
  6  8  1  0
  5  9  1  0
  9 10  1  0
 10 11  2  0
  6  2  1  0
 10  2  1  0
M  END
