
     RDKit          3D

 16 15  0  0  0  0  0  0  0  0999 V2000
   -3.3605   -0.2142    2.5853 C   0  0  0  0  0  0  0  0  0  0  0  0
   -3.3699    0.1730    1.1295 C   0  0  0  0  0  0  0  0  0  0  0  0
   -2.8337    1.3420    0.7283 C   0  0  0  0  0  0  0  0  0  0  0  0
   -2.7583    1.8996   -0.6690 C   0  0  0  0  0  0  0  0  0  0  0  0
   -1.3317    1.9104   -1.2388 C   0  0  0  0  0  0  0  0  0  0  0  0
   -0.8044    0.5410   -1.6205 C   0  0  0  0  0  0  0  0  0  0  0  0
    0.0896   -0.1695   -0.9031 C   0  0  0  0  0  0  0  0  0  0  0  0
    0.7053    0.1879    0.4207 C   0  0  0  0  0  0  0  0  0  0  0  0
    2.2018    0.5330    0.3513 C   0  0  0  0  0  0  0  0  0  0  0  0
    3.1871   -0.6193    0.0372 C   0  0  2  0  0  0  0  0  0  0  0  0
    2.9720   -1.8302    0.9536 C   0  0  0  0  0  0  0  0  0  0  0  0
    4.5972   -0.0601    0.0687 C   0  0  0  0  0  0  0  0  0  0  0  0
    5.6089   -0.4062    0.8774 C   0  0  0  0  0  0  0  0  0  0  0  0
    2.9896   -1.0623   -1.3060 O   0  0  0  0  0  0  0  0  0  0  0  0
   -1.3188    0.0016   -2.9315 C   0  0  0  0  0  0  0  0  0  0  0  0
   -3.9921   -0.8528    0.2236 C   0  0  0  0  0  0  0  0  0  0  0  0
  1  2  1  0
  2  3  2  3
  3  4  1  0
  4  5  1  0
  5  6  1  0
  6  7  2  0
  7  8  1  0
  8  9  1  0
  9 10  1  0
 10 11  1  1
 10 12  1  0
 12 13  2  0
 10 14  1  0
  6 15  1  0
  2 16  1  0
M  END
