
     RDKit          3D

 16 16  0  0  0  0  0  0  0  0999 V2000
    4.5859   -0.0004    0.1629 C   0  0  0  0  0  0  0  0  0  0  0  0
    3.7171    0.3472   -1.0362 C   0  0  0  0  0  0  0  0  0  0  0  0
    2.8618    1.5497   -0.7610 C   0  0  0  0  0  0  0  0  0  0  0  0
    1.5236    1.6106   -0.6663 C   0  0  0  0  0  0  0  0  0  0  0  0
    0.5362    0.4855   -0.8098 C   0  0  0  0  0  0  0  0  0  0  0  0
   -0.2877    0.2542    0.4652 C   0  0  1  0  0  0  0  0  0  0  0  0
   -1.3793   -0.8405    0.3616 C   0  0  2  0  0  0  0  0  0  0  0  0
   -0.6126   -2.1496    0.5730 C   0  0  0  0  0  0  0  0  0  0  0  0
    0.3519   -1.8408    1.7102 C   0  0  0  0  0  0  0  0  0  0  0  0
    0.5803   -0.3577    1.5543 C   0  0  0  0  0  0  0  0  0  0  0  0
    1.3636    0.2721    2.2543 O   0  0  0  0  0  0  0  0  0  0  0  0
   -2.2202   -0.8644   -0.9112 C   0  0  0  0  0  0  0  0  0  0  0  0
   -3.0750    0.3727   -1.0289 C   0  0  0  0  0  0  0  0  0  0  0  0
   -2.7822    1.3445   -1.7106 O   0  0  0  0  0  0  0  0  0  0  0  0
   -4.1844    0.2588   -0.2498 O   0  0  0  0  0  0  0  0  0  0  0  0
   -5.0392    1.4027   -0.2874 C   0  0  0  0  0  0  0  0  0  0  0  0
  1  2  1  0
  2  3  1  0
  3  4  2  0
  4  5  1  0
  6  5  1  6
  6  7  1  0
  7  8  1  0
  8  9  1  0
  9 10  1  0
 10 11  2  0
  7 12  1  6
 12 13  1  0
 13 14  2  0
 13 15  1  0
 15 16  1  0
 10  6  1  0
M  END
