
     RDKit          3D

 26 27  0  0  0  0  0  0  0  0999 V2000
   -4.2520    0.5718    3.3144 N   0  0  0  0  0  0  0  0  0  0  0  0
   -3.3966    0.3327    2.5664 C   0  0  0  0  0  0  0  0  0  0  0  0
   -2.4040   -0.0001    1.5881 C   0  0  0  0  0  0  0  0  0  0  0  0
   -1.1223    0.3083    1.8134 N   0  0  0  0  0  0  0  0  0  0  0  0
   -0.4646   -0.1393    0.7086 N   0  0  0  0  0  0  0  0  0  0  0  0
    0.9207    0.0922    0.5722 C   0  0  0  0  0  0  0  0  0  0  0  0
    1.4234    0.7913   -0.5354 C   0  0  0  0  0  0  0  0  0  0  0  0
    0.4230    1.5210   -1.7438 Cl  0  0  0  0  0  0  0  0  0  0  0  0
    2.8008    1.0205   -0.6518 C   0  0  0  0  0  0  0  0  0  0  0  0
    3.6918    0.5777    0.3359 C   0  0  0  0  0  0  0  0  0  0  0  0
    5.1766    0.8115    0.1926 C   0  0  0  0  0  0  0  0  0  0  0  0
    5.4695    1.9654   -0.4659 F   0  0  0  0  0  0  0  0  0  0  0  0
    5.8215    0.8866    1.3880 F   0  0  0  0  0  0  0  0  0  0  0  0
    5.7838   -0.1864   -0.5037 F   0  0  0  0  0  0  0  0  0  0  0  0
    3.1795   -0.1146    1.4414 C   0  0  0  0  0  0  0  0  0  0  0  0
    1.8048   -0.3532    1.5673 C   0  0  0  0  0  0  0  0  0  0  0  0
    1.3117   -1.3063    2.9257 Cl  0  0  0  0  0  0  0  0  0  0  0  0
   -1.3239   -0.7890   -0.1799 C   0  0  0  0  0  0  0  0  0  0  0  0
   -0.9343   -1.4229   -1.3140 N   0  0  0  0  0  0  0  0  0  0  0  0
   -2.5797   -0.6636    0.3669 C   0  0  0  0  0  0  0  0  0  0  0  0
   -4.1156   -1.2776   -0.3062 S   0  0  0  0  0  4  0  0  0  0  0  0
   -3.7501   -2.3190   -1.3309 O   0  0  0  0  0  0  0  0  0  0  0  0
   -4.6222    0.2593   -1.1306 C   0  0  0  0  0  0  0  0  0  0  0  0
   -3.7340    0.6774   -2.0656 F   0  0  0  0  0  0  0  0  0  0  0  0
   -4.7574    1.2715   -0.2337 F   0  0  0  0  0  0  0  0  0  0  0  0
   -5.8227    0.1239   -1.7487 F   0  0  0  0  0  0  0  0  0  0  0  0
  1  2  3  0
  2  3  1  0
  3  4  2  0
  4  5  1  0
  5  6  1  0
  6  7  2  0
  7  8  1  0
  7  9  1  0
  9 10  2  0
 10 11  1  0
 11 12  1  0
 11 13  1  0
 11 14  1  0
 10 15  1  0
 15 16  2  0
 16 17  1  0
  5 18  1  0
 18 19  1  0
 18 20  2  0
 20 21  1  0
 21 22  2  0
 21 23  1  6
 23 24  1  0
 23 25  1  0
 23 26  1  0
 20  3  1  0
 16  6  1  0
M  END
