
     RDKit          3D

 18 19  0  0  0  0  0  0  0  0999 V2000
   -1.8821   -2.0771    0.3446 O   0  0  0  0  0  0  0  0  0  0  0  0
   -2.7066   -1.1889    0.1451 C   0  0  0  0  0  0  0  0  0  0  0  0
   -2.5724    0.2186    0.7180 C   0  0  0  0  0  0  0  0  0  0  0  0
   -1.0839    0.6389    0.8356 C   0  0  1  0  0  0  0  0  0  0  0  0
   -0.2968    0.0044    1.9689 C   0  0  0  0  0  0  0  0  0  0  0  0
    1.0993   -0.0735    1.4293 C   0  0  0  0  0  0  0  0  0  0  0  0
    2.0628   -0.1880    2.1755 O   0  0  0  0  0  0  0  0  0  0  0  0
    1.0532    0.0157    0.0538 N   0  0  0  0  0  0  0  0  0  0  0  0
    2.1799   -0.1751   -0.8114 C   0  0  0  0  0  0  0  0  0  0  0  0
    3.3861   -0.7215   -0.3396 C   0  0  0  0  0  0  0  0  0  0  0  0
    4.4906   -0.9073   -1.1816 C   0  0  0  0  0  0  0  0  0  0  0  0
    4.4165   -0.5508   -2.5215 C   0  0  0  0  0  0  0  0  0  0  0  0
    3.2376   -0.0099   -3.0171 C   0  0  0  0  0  0  0  0  0  0  0  0
    2.1350    0.1744   -2.1720 C   0  0  0  0  0  0  0  0  0  0  0  0
   -0.2268    0.3115   -0.3727 C   0  0  0  0  0  0  0  0  0  0  0  0
   -0.6674    0.3724   -1.5135 O   0  0  0  0  0  0  0  0  0  0  0  0
   -3.2722    0.2273    2.0874 C   0  0  0  0  0  0  0  0  0  0  0  0
   -3.3362    1.1849   -0.2083 C   0  0  0  0  0  0  0  0  0  0  0  0
  1  2  2  0
  2  3  1  0
  4  3  1  6
  4  5  1  0
  5  6  1  0
  6  7  2  0
  6  8  1  0
  8  9  1  0
  9 10  2  0
 10 11  1  0
 11 12  2  0
 12 13  1  0
 13 14  2  0
  8 15  1  0
 15 16  2  0
  3 17  1  0
  3 18  1  0
 15  4  1  0
 14  9  1  0
M  END
