
     RDKit          3D

 20 21  0  0  0  0  0  0  0  0999 V2000
   -1.1966   -1.6460   -0.5201 C   0  0  0  0  0  0  0  0  0  0  0  0
   -1.6373   -0.6497    0.5691 C   0  0  0  0  0  0  0  0  0  0  0  0
   -1.9445   -1.4613    1.8500 C   0  0  0  0  0  0  0  0  0  0  0  0
   -2.9549    0.0016    0.1177 C   0  0  0  0  0  0  0  0  0  0  0  0
   -0.4942    0.3863    0.8772 C   0  0  2  0  0  0  0  0  0  0  0  0
   -0.8617    1.2600    1.9457 O   0  0  0  0  0  0  0  0  0  0  0  0
    0.0530    1.2185   -0.2845 C   0  0  0  0  0  0  0  0  0  0  0  0
    1.2209    0.8971   -0.9017 C   0  0  0  0  0  0  0  0  0  0  0  0
    2.1411   -0.1973   -0.5791 C   0  0  0  0  0  0  0  0  0  0  0  0
    2.2662   -1.2793   -1.4574 C   0  0  0  0  0  0  0  0  0  0  0  0
    3.1510   -2.3213   -1.1688 C   0  0  0  0  0  0  0  0  0  0  0  0
    3.9205   -2.2744   -0.0078 C   0  0  0  0  0  0  0  0  0  0  0  0
    5.0081   -3.5584    0.3490 Cl  0  0  0  0  0  0  0  0  0  0  0  0
    3.8178   -1.1920    0.8640 C   0  0  0  0  0  0  0  0  0  0  0  0
    2.9324   -0.1507    0.5753 C   0  0  0  0  0  0  0  0  0  0  0  0
   -0.6461    2.3764   -0.7343 N   0  0  0  0  0  0  0  0  0  0  0  0
   -1.7356    3.0276   -0.1667 C   0  0  0  0  0  0  0  0  0  0  0  0
   -2.1296    4.0529   -0.8850 N   0  0  0  0  0  0  0  0  0  0  0  0
   -1.2372    4.0547   -1.9004 C   0  0  0  0  0  0  0  0  0  0  0  0
   -0.3210    3.0922   -1.8652 N   0  0  0  0  0  0  0  0  0  0  0  0
  1  2  1  0
  2  3  1  0
  2  4  1  0
  2  5  1  0
  5  6  1  1
  5  7  1  0
  7  8  2  0
  8  9  1  0
  9 10  2  0
 10 11  1  0
 11 12  2  0
 12 13  1  0
 12 14  1  0
 14 15  2  0
  7 16  1  0
 16 17  1  0
 17 18  2  0
 18 19  1  0
 19 20  2  0
 15  9  1  0
 20 16  1  0
M  END
