
     RDKit          3D

  7  7  0  0  0  0  0  0  0  0999 V2000
    1.9235   -0.6662    0.2066 C   0  0  0  0  0  0  0  0  0  0  0  0
    0.6837    0.2077    0.1157 C   0  0  2  0  0  0  0  0  0  0  0  0
   -0.4369   -0.2527    1.0494 C   0  0  0  0  0  0  0  0  0  0  0  0
   -1.6801    0.4551    0.5247 C   0  0  0  0  0  0  0  0  0  0  0  0
   -1.3924    0.5255   -0.9524 C   0  0  0  0  0  0  0  0  0  0  0  0
   -2.2268    0.8265   -1.7963 O   0  0  0  0  0  0  0  0  0  0  0  0
    0.0409    0.1853   -1.2726 C   0  0  0  0  0  0  0  0  0  0  0  0
  2  1  1  6
  2  3  1  0
  3  4  1  0
  4  5  1  0
  5  6  2  0
  5  7  1  0
  7  2  1  0
M  END
