
     RDKit          3D

 19 20  0  0  0  0  0  0  0  0999 V2000
   -0.3648    0.7964    2.3966 O   0  0  0  0  0  0  0  0  0  0  0  0
   -1.0332    0.4697    1.4268 C   0  0  0  0  0  0  0  0  0  0  0  0
   -2.5528    0.3926    1.4407 C   0  0  2  0  0  0  0  0  0  0  0  0
   -3.0025   -1.1445    2.2214 Cl  0  0  0  0  0  0  0  0  0  0  0  0
   -2.8918    0.4635   -0.0476 C   0  0  2  0  0  0  0  0  0  0  0  0
   -4.2388   -0.0824   -0.4909 C   0  0  0  0  0  0  0  0  0  0  0  0
   -5.5711    0.8292    0.2543 Cl  0  0  0  0  0  0  0  0  0  0  0  0
   -1.7240   -0.2680   -0.6918 C   0  0  0  0  0  0  0  0  0  0  0  0
   -0.5949    0.0628    0.1492 N   0  0  0  0  0  0  0  0  0  0  0  0
    0.7533   -0.1299   -0.2619 C   0  0  0  0  0  0  0  0  0  0  0  0
    1.0446   -0.7347   -1.4949 C   0  0  0  0  0  0  0  0  0  0  0  0
    2.3635   -0.9345   -1.9153 C   0  0  0  0  0  0  0  0  0  0  0  0
    3.4226   -0.5295   -1.1101 C   0  0  0  0  0  0  0  0  0  0  0  0
    3.1700    0.0834    0.1216 C   0  0  0  0  0  0  0  0  0  0  0  0
    4.3021    0.5197    1.0194 C   0  0  0  0  0  0  0  0  0  0  0  0
    5.5056    0.5696    0.3799 F   0  0  0  0  0  0  0  0  0  0  0  0
    4.1141    1.7618    1.5448 F   0  0  0  0  0  0  0  0  0  0  0  0
    4.4798   -0.3168    2.0782 F   0  0  0  0  0  0  0  0  0  0  0  0
    1.8354    0.2706    0.5338 C   0  0  0  0  0  0  0  0  0  0  0  0
  1  2  2  0
  2  3  1  0
  3  4  1  6
  3  5  1  0
  5  6  1  1
  6  7  1  0
  5  8  1  0
  8  9  1  0
  9 10  1  0
 10 11  2  0
 11 12  1  0
 12 13  2  0
 13 14  1  0
 14 15  1  0
 15 16  1  0
 15 17  1  0
 15 18  1  0
 14 19  2  0
  9  2  1  0
 19 10  1  0
M  END
