
     RDKit          3D

 27 29  0  0  0  0  0  0  0  0999 V2000
   -3.0718   -1.9526    0.4956 C   0  0  0  0  0  0  0  0  0  0  0  0
   -2.1494   -1.4218   -0.6101 C   0  0  1  0  0  0  0  0  0  0  0  0
   -1.6066   -2.6396   -1.2000 O   0  0  0  0  0  0  0  0  0  0  0  0
   -2.9549   -0.7232   -1.7364 C   0  0  0  0  0  0  0  0  0  0  0  0
   -3.6431    0.4876   -1.3646 N   0  0  0  0  0  0  0  0  0  0  0  0
   -4.9640    0.6378   -1.0753 C   0  0  0  0  0  0  0  0  0  0  0  0
   -5.2280    1.9081   -0.8772 N   0  0  0  0  0  0  0  0  0  0  0  0
   -4.0163    2.5067   -1.0739 C   0  0  0  0  0  0  0  0  0  0  0  0
   -3.0187    1.6780   -1.3935 N   0  0  0  0  0  0  0  0  0  0  0  0
   -0.9101   -0.5984   -0.1965 C   0  0  0  0  0  0  0  0  0  0  0  0
    0.1794   -0.6179   -1.1130 C   0  0  0  0  0  0  0  0  0  0  0  0
    1.3713    0.0741   -0.8934 C   0  0  0  0  0  0  0  0  0  0  0  0
    1.5236    0.8106    0.2682 C   0  0  0  0  0  0  0  0  0  0  0  0
    2.6501    1.5457    0.5519 O   0  0  0  0  0  0  0  0  0  0  0  0
    3.8693    0.9363    0.3621 C   0  0  0  0  0  0  0  0  0  0  0  0
    4.1618   -0.3363    0.8616 C   0  0  0  0  0  0  0  0  0  0  0  0
    5.4326   -0.8819    0.6666 C   0  0  0  0  0  0  0  0  0  0  0  0
    6.4057   -0.1471   -0.0108 C   0  0  0  0  0  0  0  0  0  0  0  0
    7.9708   -0.8206   -0.2501 Cl  0  0  0  0  0  0  0  0  0  0  0  0
    6.1224    1.1319   -0.4896 C   0  0  0  0  0  0  0  0  0  0  0  0
    4.8522    1.6781   -0.2952 C   0  0  0  0  0  0  0  0  0  0  0  0
    0.4691    0.8902    1.1726 C   0  0  0  0  0  0  0  0  0  0  0  0
   -0.7566    0.2037    0.9665 C   0  0  0  0  0  0  0  0  0  0  0  0
   -1.8042    0.4064    2.0410 C   0  0  0  0  0  0  0  0  0  0  0  0
   -3.0146    0.7864    1.5565 F   0  0  0  0  0  0  0  0  0  0  0  0
   -2.0218   -0.7206    2.7747 F   0  0  0  0  0  0  0  0  0  0  0  0
   -1.4747    1.3635    2.9578 F   0  0  0  0  0  0  0  0  0  0  0  0
  2  1  1  1
  2  3  1  0
  2  4  1  0
  4  5  1  0
  5  6  1  0
  6  7  2  0
  7  8  1  0
  8  9  2  0
  2 10  1  0
 10 11  2  0
 11 12  1  0
 12 13  2  0
 13 14  1  0
 14 15  1  0
 15 16  2  0
 16 17  1  0
 17 18  2  0
 18 19  1  0
 18 20  1  0
 20 21  2  0
 13 22  1  0
 22 23  2  0
 23 24  1  0
 24 25  1  0
 24 26  1  0
 24 27  1  0
  9  5  1  0
 23 10  1  0
 21 15  1  0
M  END
