
     RDKit          3D

 10 10  0  0  0  0  0  0  0  0999 V2000
   -2.4967    0.1682   -0.5445 C   0  0  0  0  0  0  0  0  0  0  0  0
   -1.5467    0.2675    0.6412 C   0  0  2  0  0  0  0  0  0  0  0  0
   -0.0954    0.1186    0.2373 C   0  0  0  0  0  0  0  0  0  0  0  0
    0.4039   -1.1117   -0.2215 C   0  0  0  0  0  0  0  0  0  0  0  0
    1.7431   -1.2432   -0.5950 C   0  0  0  0  0  0  0  0  0  0  0  0
    2.5930   -0.1431   -0.5131 C   0  0  0  0  0  0  0  0  0  0  0  0
    2.1162    1.0856   -0.0619 C   0  0  0  0  0  0  0  0  0  0  0  0
    0.7760    1.2157    0.3115 C   0  0  0  0  0  0  0  0  0  0  0  0
    4.4062   -0.3180   -1.0181 Br  0  0  0  0  0  0  0  0  0  0  0  0
   -1.8938   -0.7357    1.5939 O   0  0  0  0  0  0  0  0  0  0  0  0
  2  1  1  6
  2  3  1  0
  3  4  2  0
  4  5  1  0
  5  6  2  0
  6  7  1  0
  7  8  2  0
  6  9  1  0
  2 10  1  0
  8  3  1  0
M  END
