
     RDKit          3D

 19 20  0  0  0  0  0  0  0  0999 V2000
    4.6068   -0.2704   -0.1608 C   0  0  0  0  0  0  0  0  0  0  0  0
    3.2855    0.1929    0.3965 C   0  0  0  0  0  0  0  0  0  0  0  0
    2.9285    1.3669    0.2959 O   0  0  0  0  0  0  0  0  0  0  0  0
    2.4287   -0.8483    1.1154 C   0  0  1  0  0  0  0  0  0  0  0  0
    2.9109   -1.0155    2.5528 C   0  0  0  0  0  0  0  0  0  0  0  0
    0.9272   -0.5301    1.0363 C   0  0  1  0  0  0  0  0  0  0  0  0
    0.4244    0.6724    1.8320 C   0  0  0  0  0  0  0  0  0  0  0  0
   -0.4888    1.3870    0.8775 C   0  0  0  0  0  0  0  0  0  0  0  0
   -1.1995    2.3323    1.1875 O   0  0  0  0  0  0  0  0  0  0  0  0
   -0.3739    0.8187   -0.3566 N   0  0  0  0  0  0  0  0  0  0  0  0
   -1.0678    1.3070   -1.5269 C   0  0  0  0  0  0  0  0  0  0  0  0
   -2.3911    0.6023   -1.7156 C   0  0  0  0  0  0  0  0  0  0  0  0
   -3.5502    1.0879   -1.0933 C   0  0  0  0  0  0  0  0  0  0  0  0
   -4.7675    0.4232   -1.2480 C   0  0  0  0  0  0  0  0  0  0  0  0
   -4.8369   -0.7358   -2.0190 C   0  0  0  0  0  0  0  0  0  0  0  0
   -3.6889   -1.2344   -2.6321 C   0  0  0  0  0  0  0  0  0  0  0  0
   -2.4704   -0.5716   -2.4787 C   0  0  0  0  0  0  0  0  0  0  0  0
    0.4858   -0.2377   -0.3771 C   0  0  0  0  0  0  0  0  0  0  0  0
    0.8395   -0.8864   -1.3520 O   0  0  0  0  0  0  0  0  0  0  0  0
  1  2  1  0
  2  3  2  0
  2  4  1  0
  4  5  1  1
  4  6  1  0
  6  7  1  1
  7  8  1  0
  8  9  2  0
  8 10  1  0
 10 11  1  0
 11 12  1  0
 12 13  2  0
 13 14  1  0
 14 15  2  0
 15 16  1  0
 16 17  2  0
 10 18  1  0
 18 19  2  0
 18  6  1  0
 17 12  1  0
M  END
