
     RDKit          3D

 10 10  0  0  0  0  0  0  0  0999 V2000
    3.6159    0.4687   -0.2650 C   0  0  0  0  0  0  0  0  0  0  0  0
    2.1295    0.2814   -0.1670 C   0  0  0  0  0  0  0  0  0  0  0  0
    1.4644    0.4413    0.9911 C   0  0  0  0  0  0  0  0  0  0  0  0
   -0.0169    0.2262    1.1398 C   0  0  0  0  0  0  0  0  0  0  0  0
   -0.6435   -0.5223   -0.0546 C   0  0  2  0  0  0  0  0  0  0  0  0
   -0.0983    0.0413   -1.3757 C   0  0  0  0  0  0  0  0  0  0  0  0
    1.4261   -0.1002   -1.4471 C   0  0  0  0  0  0  0  0  0  0  0  0
   -2.1674   -0.5308   -0.0012 C   0  0  0  0  0  0  0  0  0  0  0  0
   -2.8439   -1.6710    0.2230 C   0  0  0  0  0  0  0  0  0  0  0  0
   -2.9025    0.7660   -0.2136 C   0  0  0  0  0  0  0  0  0  0  0  0
  1  2  1  0
  2  3  2  0
  3  4  1  0
  4  5  1  0
  5  6  1  0
  6  7  1  0
  5  8  1  6
  8  9  2  0
  8 10  1  0
  7  2  1  0
M  END
