
     RDKit          3D

 26 28  0  0  0  0  0  0  0  0999 V2000
   -2.4200    0.9672    0.8877 C   0  0  0  0  0  0  0  0  0  0  0  0
   -3.6460    1.1871    0.0292 C   0  0  0  0  0  0  0  0  0  0  0  0
   -4.3931    2.4490    0.3912 C   0  0  0  0  0  0  0  0  0  0  0  0
   -4.4723    0.0077   -0.4583 C   0  0  2  0  0  0  0  0  0  0  0  0
   -4.1323   -1.3798   -0.1015 C   0  0  0  0  0  0  0  0  0  0  0  0
   -4.5019   -2.4979   -0.7474 C   0  0  0  0  0  0  0  0  0  0  0  0
   -5.4967   -2.4630   -2.1581 Cl  0  0  0  0  0  0  0  0  0  0  0  0
   -4.0036   -4.0457   -0.1595 Cl  0  0  0  0  0  0  0  0  0  0  0  0
   -3.6277    0.7921   -1.4447 C   0  0  2  0  0  0  0  0  0  0  0  0
   -2.4168    0.2375   -2.0961 C   0  0  0  0  0  0  0  0  0  0  0  0
   -2.4243   -0.8322   -2.6860 O   0  0  0  0  0  0  0  0  0  0  0  0
   -1.3623    1.0854   -1.9803 O   0  0  0  0  0  0  0  0  0  0  0  0
   -0.1246    0.5927   -2.5041 C   0  0  0  0  0  0  0  0  0  0  0  0
    0.6350   -0.1097   -1.4084 C   0  0  0  0  0  0  0  0  0  0  0  0
    0.5787   -1.5057   -1.2863 C   0  0  0  0  0  0  0  0  0  0  0  0
    1.2386   -2.1546   -0.2411 C   0  0  0  0  0  0  0  0  0  0  0  0
    1.9647   -1.4157    0.6919 C   0  0  0  0  0  0  0  0  0  0  0  0
    2.0367   -0.0267    0.5699 C   0  0  0  0  0  0  0  0  0  0  0  0
    2.7003    0.7617    1.4825 O   0  0  0  0  0  0  0  0  0  0  0  0
    3.9922    0.4073    1.8002 C   0  0  0  0  0  0  0  0  0  0  0  0
    4.3495    0.4650    3.1477 C   0  0  0  0  0  0  0  0  0  0  0  0
    5.6524    0.1517    3.5364 C   0  0  0  0  0  0  0  0  0  0  0  0
    6.5998   -0.2039    2.5758 C   0  0  0  0  0  0  0  0  0  0  0  0
    6.2481   -0.2396    1.2261 C   0  0  0  0  0  0  0  0  0  0  0  0
    4.9454    0.0734    0.8347 C   0  0  0  0  0  0  0  0  0  0  0  0
    1.3578    0.6269   -0.4597 C   0  0  0  0  0  0  0  0  0  0  0  0
  1  2  1  0
  2  3  1  0
  2  4  1  0
  4  5  1  1
  5  6  2  3
  6  7  1  0
  6  8  1  0
  4  9  1  0
  9 10  1  1
 10 11  2  0
 10 12  1  0
 12 13  1  0
 13 14  1  0
 14 15  2  0
 15 16  1  0
 16 17  2  0
 17 18  1  0
 18 19  1  0
 19 20  1  0
 20 21  2  0
 21 22  1  0
 22 23  2  0
 23 24  1  0
 24 25  2  0
 18 26  2  0
  9  2  1  0
 26 14  1  0
 25 20  1  0
M  END
