
     RDKit          3D

 11 10  0  0  0  0  0  0  0  0999 V2000
   -3.0106   -2.2914   -0.3017 C   0  0  0  0  0  0  0  0  0  0  0  0
   -2.2460   -0.9976   -0.1849 C   0  0  0  0  0  0  0  0  0  0  0  0
   -1.0379   -0.8631   -0.7679 C   0  0  0  0  0  0  0  0  0  0  0  0
   -0.1317    0.3409   -0.7821 C   0  0  1  0  0  0  0  0  0  0  0  0
    1.1836    0.0507   -0.0263 C   0  0  0  0  0  0  0  0  0  0  0  0
    2.1302    1.2161    0.2545 C   0  0  0  0  0  0  0  0  0  0  0  0
    1.9528    2.4592   -0.2270 C   0  0  0  0  0  0  0  0  0  0  0  0
    3.2988    0.9661    1.0958 C   0  0  0  0  0  0  0  0  0  0  0  0
    3.6664   -0.2066    1.6284 C   0  0  0  0  0  0  0  0  0  0  0  0
    0.1410    0.6161   -2.1568 O   0  0  0  0  0  0  0  0  0  0  0  0
   -2.9478    0.0597    0.6220 C   0  0  0  0  0  0  0  0  0  0  0  0
  1  2  1  0
  2  3  2  3
  3  4  1  0
  4  5  1  0
  5  6  1  0
  6  7  2  0
  6  8  1  0
  8  9  2  0
  4 10  1  6
  2 11  1  0
M  END
