
     RDKit          3D

 12 12  0  0  0  0  0  0  0  0999 V2000
    3.6910    0.8712    0.6506 C   0  0  0  0  0  0  0  0  0  0  0  0
    2.5048   -0.0378    0.4646 C   0  0  0  0  0  0  0  0  0  0  0  0
    2.5747   -1.2399    0.7157 O   0  0  0  0  0  0  0  0  0  0  0  0
    1.2262    0.6124   -0.0236 C   0  0  0  0  0  0  0  0  0  0  0  0
    0.1302   -0.4089   -0.3126 C   0  0  1  0  0  0  0  0  0  0  0  0
   -0.4811   -1.0480    0.9316 C   0  0  0  0  0  0  0  0  0  0  0  0
   -1.9607   -0.9948    0.6840 C   0  0  0  0  0  0  0  0  0  0  0  0
   -2.8020   -1.4784    1.4262 O   0  0  0  0  0  0  0  0  0  0  0  0
   -2.1932   -0.2744   -0.4509 N   0  0  0  0  0  0  0  0  0  0  0  0
   -3.5161    0.0959   -0.8922 C   0  0  0  0  0  0  0  0  0  0  0  0
   -1.0499    0.2351   -0.9920 C   0  0  0  0  0  0  0  0  0  0  0  0
   -0.9725    1.0672   -1.8834 O   0  0  0  0  0  0  0  0  0  0  0  0
  1  2  1  0
  2  3  2  0
  2  4  1  0
  5  4  1  1
  5  6  1  0
  6  7  1  0
  7  8  2  0
  7  9  1  0
  9 10  1  0
  9 11  1  0
 11 12  2  0
 11  5  1  0
M  END
