
     RDKit          3D

  9 10  0  0  0  0  0  0  0  0999 V2000
    0.9614    0.4741    0.5461 C   0  0  0  0  0  0  0  0  0  0  0  0
    0.8236    0.2963   -1.0073 C   0  0  2  0  0  0  0  0  0  0  0  0
   -0.4617    0.9530   -1.5433 C   0  0  0  0  0  0  0  0  0  0  0  0
   -1.7212    0.3069   -0.9282 C   0  0  0  0  0  0  0  0  0  0  0  0
   -1.4332   -0.3179    0.4163 C   0  0  0  0  0  0  0  0  0  0  0  0
   -2.3240   -0.4301    1.4097 C   0  0  0  0  0  0  0  0  0  0  0  0
   -0.0118   -0.7576    0.6243 C   0  0  1  0  0  0  0  0  0  0  0  0
    0.6583   -1.2250   -0.7125 C   0  0  0  0  0  0  0  0  0  0  0  0
    2.3460    0.3277    1.1635 C   0  0  0  0  0  0  0  0  0  0  0  0
  1  2  1  0
  2  3  1  1
  3  4  1  0
  4  5  1  0
  5  6  2  0
  5  7  1  0
  7  8  1  6
  1  9  1  0
  7  1  1  0
  8  2  1  0
M  END
