
     RDKit          3D

 15 16  0  0  0  0  0  0  0  0999 V2000
   -3.7884    0.8027    0.4291 C   0  0  0  0  0  0  0  0  0  0  0  0
   -2.5845    0.0405    0.2001 N   0  0  0  0  0  0  0  0  0  0  0  0
   -2.3402   -1.1616    0.7940 C   0  0  0  0  0  0  0  0  0  0  0  0
   -3.0206   -1.7061    1.6494 O   0  0  0  0  0  0  0  0  0  0  0  0
   -1.1089   -1.7596    0.1791 C   0  0  0  0  0  0  0  0  0  0  0  0
   -0.5367   -0.6414   -0.7029 C   0  0  2  0  0  0  0  0  0  0  0  0
    0.7257   -0.0016   -0.0931 C   0  0  2  0  0  0  0  0  0  0  0  0
    1.1169    1.3378   -0.7261 C   0  0  0  0  0  0  0  0  0  0  0  0
    2.2694    1.9288   -0.1142 O   0  0  0  0  0  0  0  0  0  0  0  0
    3.2260    1.0128    0.4142 C   0  0  0  0  0  0  0  0  0  0  0  0
    3.2862   -0.2764   -0.3744 C   0  0  0  0  0  0  0  0  0  0  0  0
    1.9247   -0.9209   -0.3090 C   0  0  0  0  0  0  0  0  0  0  0  0
    1.8000   -2.1394   -0.4336 O   0  0  0  0  0  0  0  0  0  0  0  0
   -1.6932    0.3214   -0.7901 C   0  0  0  0  0  0  0  0  0  0  0  0
   -1.7830    1.2127   -1.6209 O   0  0  0  0  0  0  0  0  0  0  0  0
  1  2  1  0
  2  3  1  0
  3  4  2  0
  3  5  1  0
  6  5  1  1
  6  7  1  0
  7  8  1  6
  8  9  1  0
  9 10  1  0
 10 11  1  0
 11 12  1  0
 12 13  2  0
  6 14  1  0
 14 15  2  0
 14  2  1  0
 12  7  1  0
M  END
