
     RDKit          3D

 15 15  0  0  0  0  0  0  0  0999 V2000
    4.8668    1.0351    1.2668 C   0  0  0  0  0  0  0  0  0  0  0  0
    3.6351    0.5675    0.5474 C   0  0  0  0  0  0  0  0  0  0  0  0
    3.1333   -0.6673    0.7256 C   0  0  0  0  0  0  0  0  0  0  0  0
    1.8970   -1.1752    0.0409 C   0  0  0  0  0  0  0  0  0  0  0  0
    1.0726   -0.0630   -0.6447 C   0  0  1  0  0  0  0  0  0  0  0  0
    2.0043    0.9190   -1.3721 C   0  0  0  0  0  0  0  0  0  0  0  0
    2.9963    1.5586   -0.3947 C   0  0  0  0  0  0  0  0  0  0  0  0
   -0.0146   -0.6393   -1.5470 C   0  0  0  0  0  0  0  0  0  0  0  0
    0.2568   -1.2671   -2.7042 C   0  0  0  0  0  0  0  0  0  0  0  0
   -1.4498   -0.4381   -1.1005 C   0  0  0  0  0  0  0  0  0  0  0  0
   -1.7896   -1.1795    0.1975 C   0  0  0  0  0  0  0  0  0  0  0  0
   -3.2390   -1.0095    0.5675 C   0  0  0  0  0  0  0  0  0  0  0  0
   -3.7645   -0.0591    1.3671 C   0  0  0  0  0  0  0  0  0  0  0  0
   -5.2410   -0.0307    1.6649 C   0  0  0  0  0  0  0  0  0  0  0  0
   -2.9800    1.0392    2.0221 C   0  0  0  0  0  0  0  0  0  0  0  0
  1  2  1  0
  2  3  2  0
  3  4  1  0
  4  5  1  0
  5  6  1  0
  6  7  1  0
  5  8  1  6
  8  9  2  0
  8 10  1  0
 10 11  1  0
 11 12  1  0
 12 13  2  3
 13 14  1  0
 13 15  1  0
  7  2  1  0
M  END
