
     RDKit          3D

 24 26  0  0  0  0  0  0  0  0999 V2000
    6.0935   -0.5011   -1.1267 C   0  0  0  0  0  0  0  0  0  0  0  0
    4.6765   -0.6287   -0.6396 C   0  0  0  0  0  0  0  0  0  0  0  0
    4.2453   -2.0302   -0.3061 C   0  0  0  0  0  0  0  0  0  0  0  0
    3.8756    0.4486   -0.5227 C   0  0  0  0  0  0  0  0  0  0  0  0
    2.4773    0.4666   -0.0687 C   0  0  2  0  0  0  0  0  0  0  0  0
    1.9355    1.7191    0.5916 C   0  0  1  0  0  0  0  0  0  0  0  0
    0.5701    2.2166    0.3047 C   0  0  0  0  0  0  0  0  0  0  0  0
   -0.1088    2.7571    1.1637 O   0  0  0  0  0  0  0  0  0  0  0  0
    0.2110    2.0017   -0.9828 O   0  0  0  0  0  0  0  0  0  0  0  0
   -1.1241    2.3924   -1.3085 C   0  0  0  0  0  0  0  0  0  0  0  0
   -2.0697    1.4194   -0.8333 N   0  0  0  0  0  0  0  0  0  0  0  0
   -3.2579    1.7505   -0.2635 C   0  0  0  0  0  0  0  0  0  0  0  0
   -3.7142    2.8532   -0.0268 O   0  0  0  0  0  0  0  0  0  0  0  0
   -3.9734    0.4935   -0.0351 C   0  0  0  0  0  0  0  0  0  0  0  0
   -3.2535   -0.4904   -0.5775 C   0  0  0  0  0  0  0  0  0  0  0  0
   -3.6317   -1.9221   -0.5802 C   0  0  0  0  0  0  0  0  0  0  0  0
   -4.7961   -2.1765    0.3935 C   0  0  0  0  0  0  0  0  0  0  0  0
   -5.8663   -1.0739    0.3293 C   0  0  0  0  0  0  0  0  0  0  0  0
   -5.2906    0.3238    0.6208 C   0  0  0  0  0  0  0  0  0  0  0  0
   -2.0473    0.1014   -1.1591 C   0  0  0  0  0  0  0  0  0  0  0  0
   -1.2342   -0.5160   -1.8209 O   0  0  0  0  0  0  0  0  0  0  0  0
    2.1438    0.4539    1.4146 C   0  0  0  0  0  0  0  0  0  0  0  0
    0.9487   -0.3668    1.8365 C   0  0  0  0  0  0  0  0  0  0  0  0
    3.2405    0.4848    2.4524 C   0  0  0  0  0  0  0  0  0  0  0  0
  1  2  1  0
  2  3  1  0
  2  4  2  3
  5  4  1  1
  5  6  1  0
  6  7  1  6
  7  8  2  0
  7  9  1  0
  9 10  1  0
 10 11  1  0
 11 12  1  0
 12 13  2  0
 12 14  1  0
 14 15  2  0
 15 16  1  0
 16 17  1  0
 17 18  1  0
 18 19  1  0
 15 20  1  0
 20 21  2  0
  6 22  1  0
 22 23  1  0
 22 24  1  0
 22  5  1  0
 20 11  1  0
 19 14  1  0
M  END
