
     RDKit          3D

 27 29  0  0  0  0  0  0  0  0999 V2000
   -3.2522   -1.2757   -1.7309 C   0  0  0  0  0  0  0  0  0  0  0  0
   -2.5142   -1.6056   -0.4284 C   0  0  2  0  0  0  0  0  0  0  0  0
   -2.7374   -3.0403   -0.3149 O   0  0  0  0  0  0  0  0  0  0  0  0
   -3.2371   -0.9812    0.7918 C   0  0  0  0  0  0  0  0  0  0  0  0
   -3.2238    0.4593    0.8542 N   0  0  0  0  0  0  0  0  0  0  0  0
   -4.2377    1.3134    0.5486 C   0  0  0  0  0  0  0  0  0  0  0  0
   -3.8660    2.5456    0.8066 N   0  0  0  0  0  0  0  0  0  0  0  0
   -2.5985    2.3883    1.2895 C   0  0  0  0  0  0  0  0  0  0  0  0
   -2.1652    1.1260    1.3515 N   0  0  0  0  0  0  0  0  0  0  0  0
   -0.9861   -1.4031   -0.3621 C   0  0  0  0  0  0  0  0  0  0  0  0
   -0.3026   -2.2003    0.6001 C   0  0  0  0  0  0  0  0  0  0  0  0
    1.0750   -2.1272    0.8011 C   0  0  0  0  0  0  0  0  0  0  0  0
    1.8202   -1.2292    0.0612 C   0  0  0  0  0  0  0  0  0  0  0  0
    3.1770   -1.1956    0.2718 O   0  0  0  0  0  0  0  0  0  0  0  0
    3.7418    0.0302    0.5486 C   0  0  0  0  0  0  0  0  0  0  0  0
    3.1540    0.9713    1.4003 C   0  0  0  0  0  0  0  0  0  0  0  0
    3.8066    2.1798    1.6557 C   0  0  0  0  0  0  0  0  0  0  0  0
    5.0475    2.4346    1.0725 C   0  0  0  0  0  0  0  0  0  0  0  0
    5.8506    3.9227    1.3896 Cl  0  0  0  0  0  0  0  0  0  0  0  0
    5.6457    1.4893    0.2401 C   0  0  0  0  0  0  0  0  0  0  0  0
    4.9939    0.2813   -0.0163 C   0  0  0  0  0  0  0  0  0  0  0  0
    1.1963   -0.4381   -0.9014 C   0  0  0  0  0  0  0  0  0  0  0  0
   -0.2051   -0.4880   -1.1185 C   0  0  0  0  0  0  0  0  0  0  0  0
   -0.7391    0.4745   -2.1604 C   0  0  0  0  0  0  0  0  0  0  0  0
    0.1955    1.3536   -2.6269 F   0  0  0  0  0  0  0  0  0  0  0  0
   -1.7598    1.2490   -1.7123 F   0  0  0  0  0  0  0  0  0  0  0  0
   -1.1997   -0.1686   -3.2690 F   0  0  0  0  0  0  0  0  0  0  0  0
  2  1  1  6
  2  3  1  0
  2  4  1  0
  4  5  1  0
  5  6  1  0
  6  7  2  0
  7  8  1  0
  8  9  2  0
  2 10  1  0
 10 11  2  0
 11 12  1  0
 12 13  2  0
 13 14  1  0
 14 15  1  0
 15 16  2  0
 16 17  1  0
 17 18  2  0
 18 19  1  0
 18 20  1  0
 20 21  2  0
 13 22  1  0
 22 23  2  0
 23 24  1  0
 24 25  1  0
 24 26  1  0
 24 27  1  0
  9  5  1  0
 23 10  1  0
 21 15  1  0
M  END
