
     RDKit          3D

 19 18  0  0  0  0  0  0  0  0999 V2000
    4.4728   -0.0776   -1.5649 C   0  0  0  0  0  0  0  0  0  0  0  0
    3.9129   -1.0057   -0.5047 C   0  0  0  0  0  0  0  0  0  0  0  0
    2.4893   -1.0569   -0.6683 O   0  0  0  0  0  0  0  0  0  0  0  0
    1.8385   -1.7843    0.2758 C   0  0  0  0  0  0  0  0  0  0  0  0
    2.3869   -2.4085    1.1749 O   0  0  0  0  0  0  0  0  0  0  0  0
    0.3430   -1.8021    0.0550 C   0  0  0  0  0  0  0  0  0  0  0  0
   -0.1732   -0.6417   -0.7963 C   0  0  1  0  0  0  0  0  0  0  0  0
   -1.9675   -0.7847   -1.0811 S   0  0  0  0  0  0  0  0  0  0  0  0
   -2.9522   -0.0570    0.6397 P   0  0  0  0  0  5  0  0  0  0  0  0
   -3.3600    1.8471    0.7101 S   0  0  0  0  0  0  0  0  0  0  0  0
   -4.3262   -0.9206    0.7846 O   0  0  0  0  0  0  0  0  0  0  0  0
   -4.2830   -2.3325    0.7390 C   0  0  0  0  0  0  0  0  0  0  0  0
   -2.1416   -0.6295    1.9237 O   0  0  0  0  0  0  0  0  0  0  0  0
   -2.5759   -0.2905    3.2268 C   0  0  0  0  0  0  0  0  0  0  0  0
    0.1850    0.6994   -0.1802 C   0  0  0  0  0  0  0  0  0  0  0  0
    0.1653    0.9341    1.0199 O   0  0  0  0  0  0  0  0  0  0  0  0
    0.5658    1.5768   -1.1492 O   0  0  0  0  0  0  0  0  0  0  0  0
    1.1014    2.8304   -0.6988 C   0  0  0  0  0  0  0  0  0  0  0  0
   -0.0016    3.8506   -0.5054 C   0  0  0  0  0  0  0  0  0  0  0  0
  1  2  1  0
  2  3  1  0
  3  4  1  0
  4  5  2  0
  4  6  1  0
  7  6  1  1
  7  8  1  0
  8  9  1  0
  9 10  2  0
  9 11  1  0
 11 12  1  0
  9 13  1  0
 13 14  1  0
  7 15  1  0
 15 16  2  0
 15 17  1  0
 17 18  1  0
 18 19  1  0
M  END
