
     RDKit          3D

 27 28  0  0  0  0  0  0  0  0999 V2000
    2.1268    4.1501   -1.1267 C   0  0  0  0  0  0  0  0  0  0  0  0
    3.0679    3.4835   -2.1191 C   0  0  0  0  0  0  0  0  0  0  0  0
    3.4363    2.0433   -1.7471 C   0  0  0  0  0  0  0  0  0  0  0  0
    2.2533    1.0730   -1.8500 C   0  0  0  0  0  0  0  0  0  0  0  0
    2.5987   -0.3822   -1.4395 C   0  0  2  0  0  0  0  0  0  0  0  0
    3.5889   -1.0312   -2.4283 C   0  0  0  0  0  0  0  0  0  0  0  0
    4.0712   -2.4106   -1.9986 C   0  0  0  0  0  0  0  0  0  0  0  0
    1.3029   -1.2127   -1.3252 C   0  0  0  0  0  0  0  0  0  0  0  0
    0.3989   -0.6251   -0.3739 O   0  0  0  0  0  0  0  0  0  0  0  0
    0.5662   -1.0101    0.9173 C   0  0  0  0  0  0  0  0  0  0  0  0
    1.4199   -1.7715    1.3450 O   0  0  0  0  0  0  0  0  0  0  0  0
   -0.4137   -0.3079    1.7730 C   0  0  0  0  0  0  0  0  0  0  0  0
    0.1680    0.5485    2.7493 C   0  0  0  0  0  0  0  0  0  0  0  0
    0.6429    1.2671    3.5288 N   0  0  0  0  0  0  0  0  0  0  0  0
   -1.7499   -0.5052    1.6377 C   0  0  0  0  0  0  0  0  0  0  0  0
   -2.2629   -1.5080    0.6662 C   0  0  0  0  0  0  0  0  0  0  0  0
   -2.9913   -1.0827   -0.4523 C   0  0  0  0  0  0  0  0  0  0  0  0
   -3.4814   -2.0135   -1.3696 C   0  0  0  0  0  0  0  0  0  0  0  0
   -3.2556   -3.3743   -1.1713 C   0  0  0  0  0  0  0  0  0  0  0  0
   -2.5376   -3.8077   -0.0570 C   0  0  0  0  0  0  0  0  0  0  0  0
   -2.0451   -2.8796    0.8616 C   0  0  0  0  0  0  0  0  0  0  0  0
   -2.6995    0.2652    2.4854 C   0  0  0  0  0  0  0  0  0  0  0  0
   -3.4933   -0.4032    3.4270 C   0  0  0  0  0  0  0  0  0  0  0  0
   -4.3982    0.3067    4.2186 C   0  0  0  0  0  0  0  0  0  0  0  0
   -4.5183    1.6875    4.0739 C   0  0  0  0  0  0  0  0  0  0  0  0
   -3.7427    2.3600    3.1312 C   0  0  0  0  0  0  0  0  0  0  0  0
   -2.8406    1.6526    2.3343 C   0  0  0  0  0  0  0  0  0  0  0  0
  1  2  1  0
  2  3  1  0
  3  4  1  0
  5  4  1  6
  5  6  1  0
  6  7  1  0
  5  8  1  0
  8  9  1  0
  9 10  1  0
 10 11  2  0
 10 12  1  0
 12 13  1  0
 13 14  3  0
 12 15  2  3
 15 16  1  0
 16 17  2  0
 17 18  1  0
 18 19  2  0
 19 20  1  0
 20 21  2  0
 15 22  1  0
 22 23  2  0
 23 24  1  0
 24 25  2  0
 25 26  1  0
 26 27  2  0
 21 16  1  0
 27 22  1  0
M  END
