
     RDKit          3D

 19 20  0  0  0  0  0  0  0  0999 V2000
   -0.3035   -2.5118    0.3731 O   0  0  0  0  0  0  0  0  0  0  0  0
   -1.0013   -1.5172    0.2451 C   0  0  0  0  0  0  0  0  0  0  0  0
   -2.5177   -1.5338    0.1945 C   0  0  1  0  0  0  0  0  0  0  0  0
   -3.2086   -2.6428    1.3866 Cl  0  0  0  0  0  0  0  0  0  0  0  0
   -2.8980   -0.0869    0.4837 C   0  0  2  0  0  0  0  0  0  0  0  0
   -4.2650    0.2750   -0.0760 C   0  0  0  0  0  0  0  0  0  0  0  0
   -4.6421    1.9910    0.2056 Cl  0  0  0  0  0  0  0  0  0  0  0  0
   -1.7444    0.6784   -0.1481 C   0  0  0  0  0  0  0  0  0  0  0  0
   -0.5960   -0.1836    0.0330 N   0  0  0  0  0  0  0  0  0  0  0  0
    0.7412    0.2816   -0.1118 C   0  0  0  0  0  0  0  0  0  0  0  0
    0.9989    1.5955   -0.5341 C   0  0  0  0  0  0  0  0  0  0  0  0
    2.3061    2.0695   -0.6852 C   0  0  0  0  0  0  0  0  0  0  0  0
    3.3869    1.2378   -0.4128 C   0  0  0  0  0  0  0  0  0  0  0  0
    3.1681   -0.0744    0.0193 C   0  0  0  0  0  0  0  0  0  0  0  0
    4.3238   -1.0002    0.3114 C   0  0  0  0  0  0  0  0  0  0  0  0
    4.4933   -1.9420   -0.6567 F   0  0  0  0  0  0  0  0  0  0  0  0
    5.5196   -0.3525    0.4117 F   0  0  0  0  0  0  0  0  0  0  0  0
    4.1755   -1.6814    1.4809 F   0  0  0  0  0  0  0  0  0  0  0  0
    1.8449   -0.5386    0.1602 C   0  0  0  0  0  0  0  0  0  0  0  0
  1  2  2  0
  2  3  1  0
  3  4  1  1
  3  5  1  0
  5  6  1  6
  6  7  1  0
  5  8  1  0
  8  9  1  0
  9 10  1  0
 10 11  2  0
 11 12  1  0
 12 13  2  0
 13 14  1  0
 14 15  1  0
 15 16  1  0
 15 17  1  0
 15 18  1  0
 14 19  2  0
  9  2  1  0
 19 10  1  0
M  END
