
     RDKit          3D

 13 13  0  0  0  0  0  0  0  0999 V2000
   -2.9117    1.1343    0.6884 C   0  0  0  0  0  0  0  0  0  0  0  0
   -1.4475    0.7865    0.5957 C   0  0  0  0  0  0  0  0  0  0  0  0
   -0.8272    0.4401    1.6027 O   0  0  0  0  0  0  0  0  0  0  0  0
   -0.7450    0.9633   -0.7569 C   0  0  2  0  0  0  0  0  0  0  0  0
   -1.6149    0.4530   -1.9096 C   0  0  0  0  0  0  0  0  0  0  0  0
    0.6507    0.3091   -0.7908 C   0  0  1  0  0  0  0  0  0  0  0  0
    1.6979    1.0168    0.0712 C   0  0  0  0  0  0  0  0  0  0  0  0
    2.3666   -0.0892    0.8351 C   0  0  0  0  0  0  0  0  0  0  0  0
    3.3202    0.0741    1.5822 O   0  0  0  0  0  0  0  0  0  0  0  0
    1.7391   -1.2671    0.5551 N   0  0  0  0  0  0  0  0  0  0  0  0
    2.0566   -2.5080    1.2175 C   0  0  0  0  0  0  0  0  0  0  0  0
    0.6767   -1.1167   -0.2867 C   0  0  0  0  0  0  0  0  0  0  0  0
   -0.1140   -1.9846   -0.6278 O   0  0  0  0  0  0  0  0  0  0  0  0
  1  2  1  0
  2  3  2  0
  2  4  1  0
  4  5  1  6
  4  6  1  0
  6  7  1  1
  7  8  1  0
  8  9  2  0
  8 10  1  0
 10 11  1  0
 10 12  1  0
 12 13  2  0
 12  6  1  0
M  END
