
     RDKit          3D

 18 18  0  0  0  0  0  0  0  0999 V2000
   -3.0010   -0.7221    2.3412 C   0  0  0  0  0  0  0  0  0  0  0  0
   -2.8711   -0.2052    0.9239 C   0  0  0  0  0  0  0  0  0  0  0  0
   -2.2102   -1.1875    0.1447 O   0  0  0  0  0  0  0  0  0  0  0  0
   -1.5462   -0.7574   -1.2689 P   0  0  0  0  0  5  0  0  0  0  0  0
   -0.9394   -2.2293   -2.3753 S   0  0  0  0  0  0  0  0  0  0  0  0
   -2.7242    0.1565   -1.9063 O   0  0  0  0  0  0  0  0  0  0  0  0
   -2.4673    0.8299   -3.1278 C   0  0  0  0  0  0  0  0  0  0  0  0
   -3.4172    2.0043   -3.2385 C   0  0  0  0  0  0  0  0  0  0  0  0
   -0.4618    0.3628   -0.8466 O   0  0  0  0  0  0  0  0  0  0  0  0
    0.6472    0.1668   -0.0739 C   0  0  0  0  0  0  0  0  0  0  0  0
    1.5194    1.2524    0.0146 C   0  0  0  0  0  0  0  0  0  0  0  0
    2.6799    1.1654    0.7868 C   0  0  0  0  0  0  0  0  0  0  0  0
    2.9747   -0.0116    1.4787 C   0  0  0  0  0  0  0  0  0  0  0  0
    4.4640   -0.1458    2.4931 S   0  0  0  0  0  4  0  0  0  0  0  0
    5.4416   -1.1224    1.3214 C   0  0  0  0  0  0  0  0  0  0  0  0
    5.0609    1.2314    2.5304 O   0  0  0  0  0  0  0  0  0  0  0  0
    2.0905   -1.0932    1.3995 C   0  0  0  0  0  0  0  0  0  0  0  0
    0.9298   -1.0048    0.6231 C   0  0  0  0  0  0  0  0  0  0  0  0
  1  2  1  0
  2  3  1  0
  3  4  1  0
  4  5  2  0
  4  6  1  0
  6  7  1  0
  7  8  1  0
  4  9  1  0
  9 10  1  0
 10 11  2  0
 11 12  1  0
 12 13  2  0
 13 14  1  0
 14 15  1  6
 14 16  2  0
 13 17  1  0
 17 18  2  0
 18 10  1  0
M  END
