
     RDKit          3D

 26 28  0  0  0  0  0  0  0  0999 V2000
   -5.1439   -0.0015   -0.8085 C   0  0  0  0  0  0  0  0  0  0  0  0
   -4.1574    0.3761    0.2707 C   0  0  0  0  0  0  0  0  0  0  0  0
   -4.6237    0.0011    1.6578 C   0  0  0  0  0  0  0  0  0  0  0  0
   -3.3087    1.6310    0.1473 C   0  0  2  0  0  0  0  0  0  0  0  0
   -3.4795    2.5443   -0.9941 C   0  0  0  0  0  0  0  0  0  0  0  0
   -4.3949    3.5168   -1.1261 C   0  0  0  0  0  0  0  0  0  0  0  0
   -5.5723    3.8418    0.0937 Cl  0  0  0  0  0  0  0  0  0  0  0  0
   -4.4318    4.4913   -2.5526 Cl  0  0  0  0  0  0  0  0  0  0  0  0
   -2.6795    0.2703   -0.0826 C   0  0  1  0  0  0  0  0  0  0  0  0
   -1.6984   -0.2774    0.8857 C   0  0  0  0  0  0  0  0  0  0  0  0
   -1.1614    0.4128    1.7386 O   0  0  0  0  0  0  0  0  0  0  0  0
   -1.5106   -1.6048    0.6801 O   0  0  0  0  0  0  0  0  0  0  0  0
   -0.5457   -2.2253    1.5356 C   0  0  0  0  0  0  0  0  0  0  0  0
    0.7879   -2.2666    0.8362 C   0  0  0  0  0  0  0  0  0  0  0  0
    1.0500   -3.2374   -0.1425 C   0  0  0  0  0  0  0  0  0  0  0  0
    2.2801   -3.2650   -0.8031 C   0  0  0  0  0  0  0  0  0  0  0  0
    3.2550   -2.3140   -0.5041 C   0  0  0  0  0  0  0  0  0  0  0  0
    2.9889   -1.3248    0.4451 C   0  0  0  0  0  0  0  0  0  0  0  0
    3.9192   -0.3743    0.7997 O   0  0  0  0  0  0  0  0  0  0  0  0
    4.5186    0.3260   -0.2238 C   0  0  0  0  0  0  0  0  0  0  0  0
    5.9004    0.5038   -0.1455 C   0  0  0  0  0  0  0  0  0  0  0  0
    6.5657    1.2291   -1.1344 C   0  0  0  0  0  0  0  0  0  0  0  0
    5.8464    1.7879   -2.1920 C   0  0  0  0  0  0  0  0  0  0  0  0
    4.4613    1.6293   -2.2579 C   0  0  0  0  0  0  0  0  0  0  0  0
    3.7935    0.9050   -1.2687 C   0  0  0  0  0  0  0  0  0  0  0  0
    1.7701   -1.3089    1.1251 C   0  0  0  0  0  0  0  0  0  0  0  0
  1  2  1  0
  2  3  1  0
  2  4  1  0
  4  5  1  6
  5  6  2  3
  6  7  1  0
  6  8  1  0
  4  9  1  0
  9 10  1  1
 10 11  2  0
 10 12  1  0
 12 13  1  0
 13 14  1  0
 14 15  2  0
 15 16  1  0
 16 17  2  0
 17 18  1  0
 18 19  1  0
 19 20  1  0
 20 21  2  0
 21 22  1  0
 22 23  2  0
 23 24  1  0
 24 25  2  0
 18 26  2  0
  9  2  1  0
 26 14  1  0
 25 20  1  0
M  END
