
     RDKit          3D

 10 10  0  0  0  0  0  0  0  0999 V2000
    3.6357   -0.0162    0.3999 C   0  0  0  0  0  0  0  0  0  0  0  0
    2.1536   -0.0825    0.1837 C   0  0  0  0  0  0  0  0  0  0  0  0
    1.4876   -1.3102    0.2037 C   0  0  0  0  0  0  0  0  0  0  0  0
    0.1011   -1.3648    0.0362 C   0  0  0  0  0  0  0  0  0  0  0  0
   -0.6599   -0.1965   -0.1434 C   0  0  0  0  0  0  0  0  0  0  0  0
    0.0172    1.0308   -0.1458 C   0  0  0  0  0  0  0  0  0  0  0  0
    1.4059    1.0874    0.0213 C   0  0  0  0  0  0  0  0  0  0  0  0
   -2.1560   -0.3280   -0.3448 C   0  0  2  0  0  0  0  0  0  0  0  0
   -2.9403    0.9715   -0.5047 C   0  0  0  0  0  0  0  0  0  0  0  0
   -2.6960   -1.0401    0.7700 O   0  0  0  0  0  0  0  0  0  0  0  0
  1  2  1  0
  2  3  2  0
  3  4  1  0
  4  5  2  0
  5  6  1  0
  6  7  2  0
  5  8  1  0
  8  9  1  1
  8 10  1  0
  7  2  1  0
M  END
