
     RDKit          3D

 15 16  0  0  0  0  0  0  0  0999 V2000
   -3.5644   -0.5292    0.9405 C   0  0  0  0  0  0  0  0  0  0  0  0
   -2.5291   -0.2691   -0.0295 N   0  0  0  0  0  0  0  0  0  0  0  0
   -2.4329   -0.9392   -1.2138 C   0  0  0  0  0  0  0  0  0  0  0  0
   -3.2292   -1.7499   -1.6633 O   0  0  0  0  0  0  0  0  0  0  0  0
   -1.1636   -0.5318   -1.9051 C   0  0  0  0  0  0  0  0  0  0  0  0
   -0.5844    0.5735   -1.0203 C   0  0  2  0  0  0  0  0  0  0  0  0
    0.9205    0.4274   -0.7207 C   0  0  1  0  0  0  0  0  0  0  0  0
    1.5034    1.7480   -0.2088 C   0  0  0  0  0  0  0  0  0  0  0  0
    3.3271    1.7101   -0.1420 S   0  0  0  0  0  0  0  0  0  0  0  0
    3.5918    0.0028    0.4367 C   0  0  0  0  0  0  0  0  0  0  0  0
    2.4031   -0.5502    1.1957 C   0  0  0  0  0  0  0  0  0  0  0  0
    1.2023   -0.6859    0.2878 C   0  0  0  0  0  0  0  0  0  0  0  0
    0.4776   -1.6808    0.3557 O   0  0  0  0  0  0  0  0  0  0  0  0
   -1.4526    0.5289    0.2151 C   0  0  0  0  0  0  0  0  0  0  0  0
   -1.2105    1.1455    1.2425 O   0  0  0  0  0  0  0  0  0  0  0  0
  1  2  1  0
  2  3  1  0
  3  4  2  0
  3  5  1  0
  6  5  1  6
  6  7  1  0
  7  8  1  1
  8  9  1  0
  9 10  1  0
 10 11  1  0
 11 12  1  0
 12 13  2  0
  6 14  1  0
 14 15  2  0
 14  2  1  0
 12  7  1  0
M  END
