
     RDKit          3D

 18 19  0  0  0  0  0  0  0  0999 V2000
    4.6481   -0.5880   -1.6730 O   0  0  0  0  0  0  0  0  0  0  0  0
    3.8521    0.2964   -1.3674 C   0  0  0  0  0  0  0  0  0  0  0  0
    3.2669    0.4534    0.0365 C   0  0  0  0  0  0  0  0  0  0  0  0
    2.0500   -0.4934    0.1488 C   0  0  1  0  0  0  0  0  0  0  0  0
    1.4300   -0.6293    1.5349 C   0  0  0  0  0  0  0  0  0  0  0  0
   -0.0438   -0.7334    1.2700 C   0  0  0  0  0  0  0  0  0  0  0  0
   -0.8672   -0.9641    2.1419 O   0  0  0  0  0  0  0  0  0  0  0  0
   -0.2828   -0.4530   -0.0463 N   0  0  0  0  0  0  0  0  0  0  0  0
   -1.6140   -0.2668   -0.6313 C   0  0  0  0  0  0  0  0  0  0  0  0
   -2.3187    0.9937   -0.0877 C   0  0  0  0  0  0  0  0  0  0  0  0
   -3.5273    0.6727    0.7857 C   0  0  0  0  0  0  0  0  0  0  0  0
   -4.5512   -0.2016    0.0619 C   0  0  0  0  0  0  0  0  0  0  0  0
   -3.9289   -1.2300   -0.8838 C   0  0  0  0  0  0  0  0  0  0  0  0
   -2.4787   -1.5353   -0.5302 C   0  0  0  0  0  0  0  0  0  0  0  0
    0.8646   -0.1019   -0.7029 C   0  0  0  0  0  0  0  0  0  0  0  0
    0.9468    0.4211   -1.8041 O   0  0  0  0  0  0  0  0  0  0  0  0
    4.3539    0.0494    1.0513 C   0  0  0  0  0  0  0  0  0  0  0  0
    2.9232    1.9351    0.2573 C   0  0  0  0  0  0  0  0  0  0  0  0
  1  2  2  0
  2  3  1  0
  4  3  1  1
  4  5  1  0
  5  6  1  0
  6  7  2  0
  6  8  1  0
  8  9  1  0
  9 10  1  0
 10 11  1  0
 11 12  1  0
 12 13  1  0
 13 14  1  0
  8 15  1  0
 15 16  2  0
  3 17  1  0
  3 18  1  0
 15  4  1  0
 14  9  1  0
M  END
