
     RDKit          3D

 18 20  0  0  0  0  0  0  0  0999 V2000
   -3.6540    1.0610    1.2435 C   0  0  0  0  0  0  0  0  0  0  0  0
   -3.0635    0.4806   -0.0354 C   0  0  0  0  0  0  0  0  0  0  0  0
   -2.5573    1.5720   -0.9898 C   0  0  0  0  0  0  0  0  0  0  0  0
   -1.4455    0.9286   -1.8240 C   0  0  0  0  0  0  0  0  0  0  0  0
   -1.3681   -0.5322   -1.3566 C   0  0  1  0  0  0  0  0  0  0  0  0
   -0.0825   -1.2873   -1.7227 C   0  0  0  0  0  0  0  0  0  0  0  0
    1.2062   -0.7242   -1.2279 C   0  0  0  0  0  0  0  0  0  0  0  0
    1.7476    0.4317   -1.5533 N   0  0  0  0  0  0  0  0  0  0  0  0
    2.9391    0.4934   -0.8743 C   0  0  0  0  0  0  0  0  0  0  0  0
    3.9039    1.5100   -0.8431 C   0  0  0  0  0  0  0  0  0  0  0  0
    5.0502    1.3238   -0.0597 C   0  0  0  0  0  0  0  0  0  0  0  0
    5.2314    0.1493    0.6755 C   0  0  0  0  0  0  0  0  0  0  0  0
    4.2792   -0.8770    0.6549 C   0  0  0  0  0  0  0  0  0  0  0  0
    3.1468   -0.6632   -0.1336 C   0  0  0  0  0  0  0  0  0  0  0  0
    2.0390   -1.4283   -0.3895 N   0  0  0  0  0  0  0  0  0  0  0  0
   -1.8587   -0.4927    0.1203 C   0  0  0  0  0  0  0  0  0  0  0  0
   -2.3253   -1.8782    0.5911 C   0  0  0  0  0  0  0  0  0  0  0  0
   -0.8141    0.0332    1.1193 C   0  0  0  0  0  0  0  0  0  0  0  0
  1  2  1  0
  2  3  1  0
  3  4  1  0
  4  5  1  0
  5  6  1  1
  6  7  1  0
  7  8  2  0
  8  9  1  0
  9 10  2  0
 10 11  1  0
 11 12  2  0
 12 13  1  0
 13 14  2  0
 14 15  1  0
  5 16  1  0
 16 17  1  0
 16 18  1  0
 16  2  1  0
 15  7  1  0
 14  9  1  0
M  END
