
     RDKit          3D

 15 16  0  0  0  0  0  0  0  0999 V2000
   -3.6010   -0.0407    1.1197 C   0  0  0  0  0  0  0  0  0  0  0  0
   -2.5274   -0.2725    0.1849 N   0  0  0  0  0  0  0  0  0  0  0  0
   -2.5713    0.1360   -1.1160 C   0  0  0  0  0  0  0  0  0  0  0  0
   -3.5220    0.6429   -1.6926 O   0  0  0  0  0  0  0  0  0  0  0  0
   -1.2390   -0.1270   -1.7569 C   0  0  0  0  0  0  0  0  0  0  0  0
   -0.4390   -0.8692   -0.6848 C   0  0  1  0  0  0  0  0  0  0  0  0
    0.9958   -0.3438   -0.4822 C   0  0  2  0  0  0  0  0  0  0  0  0
    1.8489   -1.3695    0.2703 C   0  0  0  0  0  0  0  0  0  0  0  0
    3.6200   -0.9283    0.2553 S   0  0  0  0  0  0  0  0  0  0  0  0
    3.5025    0.8790    0.4545 C   0  0  0  0  0  0  0  0  0  0  0  0
    2.2166    1.3124    1.1281 C   0  0  0  0  0  0  0  0  0  0  0  0
    1.0213    0.9919    0.2602 C   0  0  0  0  0  0  0  0  0  0  0  0
    0.0968    1.7996    0.1479 O   0  0  0  0  0  0  0  0  0  0  0  0
   -1.3045   -0.7508    0.5475 C   0  0  0  0  0  0  0  0  0  0  0  0
   -0.9410   -1.0690    1.6705 O   0  0  0  0  0  0  0  0  0  0  0  0
  1  2  1  0
  2  3  1  0
  3  4  2  0
  3  5  1  0
  6  5  1  6
  6  7  1  0
  7  8  1  1
  8  9  1  0
  9 10  1  0
 10 11  1  0
 11 12  1  0
 12 13  2  0
  6 14  1  0
 14 15  2  0
 14  2  1  0
 12  7  1  0
M  END
