
     RDKit          3D

 23 24  0  0  0  0  0  0  0  0999 V2000
   -5.2758    2.7603    1.5541 C   0  0  0  0  0  0  0  0  0  0  0  0
   -5.0504    1.2781    1.8373 C   0  0  0  0  0  0  0  0  0  0  0  0
   -4.5922    0.4861    0.6063 C   0  0  0  0  0  0  0  0  0  0  0  0
   -3.1558    0.8109    0.1835 C   0  0  0  0  0  0  0  0  0  0  0  0
   -2.7100    0.0670   -1.0856 C   0  0  0  0  0  0  0  0  0  0  0  0
   -1.9966   -1.2807   -0.8813 C   0  0  2  0  0  0  0  0  0  0  0  0
   -2.8438   -2.3306   -0.1790 C   0  0  0  0  0  0  0  0  0  0  0  0
   -0.8038   -1.0517   -0.1035 O   0  0  0  0  0  0  0  0  0  0  0  0
    0.2791   -1.8225   -0.4178 C   0  0  0  0  0  0  0  0  0  0  0  0
    0.3052   -2.6691   -1.3029 O   0  0  0  0  0  0  0  0  0  0  0  0
    1.4415   -1.4702    0.4980 C   0  0  0  0  0  0  0  0  0  0  0  0
    2.6323   -2.1376    0.0879 O   0  0  0  0  0  0  0  0  0  0  0  0
    3.4786   -1.2997   -0.6025 C   0  0  0  0  0  0  0  0  0  0  0  0
    3.6180   -1.5697   -1.9692 C   0  0  0  0  0  0  0  0  0  0  0  0
    4.4586   -0.7775   -2.7344 C   0  0  0  0  0  0  0  0  0  0  0  0
    5.1693    0.2580   -2.1244 C   0  0  0  0  0  0  0  0  0  0  0  0
    6.1873    1.2089   -3.1530 Cl  0  0  0  0  0  0  0  0  0  0  0  0
    5.0620    0.5140   -0.7287 C   0  0  0  0  0  0  0  0  0  0  0  0
    5.7768    1.5274   -0.0491 C   0  0  0  0  0  0  0  0  0  0  0  0
    5.6395    1.7103    1.3260 C   0  0  0  0  0  0  0  0  0  0  0  0
    4.7708    0.8805    1.9932 C   0  0  0  0  0  0  0  0  0  0  0  0
    4.0530   -0.0891    1.3862 N   0  0  0  0  0  0  0  0  0  0  0  0
    4.1986   -0.2842    0.0513 C   0  0  0  0  0  0  0  0  0  0  0  0
  1  2  1  0
  2  3  1  0
  3  4  1  0
  4  5  1  0
  5  6  1  0
  6  7  1  1
  6  8  1  0
  8  9  1  0
  9 10  2  0
  9 11  1  0
 11 12  1  0
 12 13  1  0
 13 14  2  0
 14 15  1  0
 15 16  2  0
 16 17  1  0
 16 18  1  0
 18 19  2  0
 19 20  1  0
 20 21  2  0
 21 22  1  0
 22 23  2  0
 23 13  1  0
 23 18  1  0
M  END
