
     RDKit          3D

 13 14  0  0  0  0  0  0  0  0999 V2000
   -3.9227    1.1559   -0.4665 C   0  0  0  0  0  0  0  0  0  0  0  0
   -2.5858    1.5606   -0.2526 O   0  0  0  0  0  0  0  0  0  0  0  0
   -1.5854    0.5375    0.5049 P   0  0  1  0  0  5  0  0  0  0  0  0
   -2.0662    0.0406    2.3159 S   0  0  0  0  0  0  0  0  0  0  0  0
   -1.4755   -0.6615   -0.5734 O   0  0  0  0  0  0  0  0  0  0  0  0
   -0.3765   -1.5356   -0.3964 C   0  0  0  0  0  0  0  0  0  0  0  0
    0.9241   -0.7920   -0.2773 C   0  0  0  0  0  0  0  0  0  0  0  0
    2.1339   -1.4704   -0.4871 C   0  0  0  0  0  0  0  0  0  0  0  0
    3.3538   -0.8007   -0.3683 C   0  0  0  0  0  0  0  0  0  0  0  0
    3.3788    0.5519   -0.0338 C   0  0  0  0  0  0  0  0  0  0  0  0
    2.1844    1.2342    0.1883 C   0  0  0  0  0  0  0  0  0  0  0  0
    0.9700    0.5594    0.0770 C   0  0  0  0  0  0  0  0  0  0  0  0
   -0.1654    1.2833    0.3068 O   0  0  0  0  0  0  0  0  0  0  0  0
  1  2  1  0
  3  2  1  6
  3  4  2  0
  3  5  1  0
  5  6  1  0
  6  7  1  0
  7  8  2  0
  8  9  1  0
  9 10  2  0
 10 11  1  0
 11 12  2  0
 12 13  1  0
 13  3  1  0
 12  7  1  0
M  END
