
     RDKit          3D

 24 26  0  0  0  0  0  0  0  0999 V2000
   -5.1540    0.3951   -1.7987 C   0  0  0  0  0  0  0  0  0  0  0  0
   -4.6366   -0.7502   -0.9723 C   0  0  0  0  0  0  0  0  0  0  0  0
   -4.9499   -2.1150   -1.5217 C   0  0  0  0  0  0  0  0  0  0  0  0
   -3.9409   -0.5988    0.1717 C   0  0  0  0  0  0  0  0  0  0  0  0
   -3.5759    0.6630    0.8310 C   0  0  2  0  0  0  0  0  0  0  0  0
   -2.3955    1.4932    0.3699 C   0  0  2  0  0  0  0  0  0  0  0  0
   -1.5640    1.1321   -0.8020 C   0  0  0  0  0  0  0  0  0  0  0  0
   -1.9994    1.1393   -1.9439 O   0  0  0  0  0  0  0  0  0  0  0  0
   -0.2730    0.9033   -0.4557 O   0  0  0  0  0  0  0  0  0  0  0  0
    0.5398    0.5437   -1.5685 C   0  0  0  0  0  0  0  0  0  0  0  0
    1.8549    0.2542   -1.0679 N   0  0  0  0  0  0  0  0  0  0  0  0
    2.2342   -0.9512   -0.5721 C   0  0  0  0  0  0  0  0  0  0  0  0
    1.5983   -1.9860   -0.5000 O   0  0  0  0  0  0  0  0  0  0  0  0
    3.6130   -0.7903   -0.1054 C   0  0  0  0  0  0  0  0  0  0  0  0
    3.9784    0.4744   -0.3267 C   0  0  0  0  0  0  0  0  0  0  0  0
    5.2930    1.0555    0.0295 C   0  0  0  0  0  0  0  0  0  0  0  0
    6.0640    0.1144    0.9729 C   0  0  0  0  0  0  0  0  0  0  0  0
    5.9374   -1.3621    0.5615 C   0  0  0  0  0  0  0  0  0  0  0  0
    4.4733   -1.8325    0.5010 C   0  0  0  0  0  0  0  0  0  0  0  0
    2.8450    1.1729   -0.9373 C   0  0  0  0  0  0  0  0  0  0  0  0
    2.8458    2.3496   -1.2464 O   0  0  0  0  0  0  0  0  0  0  0  0
   -2.3351    0.7608    1.7064 C   0  0  0  0  0  0  0  0  0  0  0  0
   -2.4405    1.6044    2.9554 C   0  0  0  0  0  0  0  0  0  0  0  0
   -1.4277   -0.4364    1.8858 C   0  0  0  0  0  0  0  0  0  0  0  0
  1  2  1  0
  2  3  1  0
  2  4  2  3
  5  4  1  6
  5  6  1  0
  6  7  1  6
  7  8  2  0
  7  9  1  0
  9 10  1  0
 10 11  1  0
 11 12  1  0
 12 13  2  0
 12 14  1  0
 14 15  2  0
 15 16  1  0
 16 17  1  0
 17 18  1  0
 18 19  1  0
 15 20  1  0
 20 21  2  0
  6 22  1  0
 22 23  1  0
 22 24  1  0
 22  5  1  0
 20 11  1  0
 19 14  1  0
M  END
