
     RDKit          3D

 23 24  0  0  0  0  0  0  0  0999 V2000
    4.7778   -1.6518   -0.4206 F   0  0  0  0  0  0  0  0  0  0  0  0
    4.2969   -1.4202    0.8317 C   0  0  0  0  0  0  0  0  0  0  0  0
    5.3700   -1.0940    1.5999 F   0  0  0  0  0  0  0  0  0  0  0  0
    3.2550   -0.2985    0.8257 C   0  0  0  0  0  0  0  0  0  0  0  0
    2.7997   -0.0722    2.0847 F   0  0  0  0  0  0  0  0  0  0  0  0
    3.7802    0.8655    0.3711 F   0  0  0  0  0  0  0  0  0  0  0  0
    2.1252   -0.6223    0.0053 O   0  0  0  0  0  0  0  0  0  0  0  0
    1.1116    0.3817    0.1019 C   0  0  0  0  0  0  0  0  0  0  0  0
    0.0133    0.0997   -0.9458 C   0  0  1  0  0  0  0  0  0  0  0  0
   -0.5569   -1.3337   -0.8638 C   0  0  0  0  0  0  0  0  0  0  0  0
   -0.8104   -1.8290    0.4707 N   0  0  0  0  0  0  0  0  0  0  0  0
   -0.2103   -2.8827    1.0883 C   0  0  0  0  0  0  0  0  0  0  0  0
   -0.6959   -3.0160    2.3003 N   0  0  0  0  0  0  0  0  0  0  0  0
   -1.6243   -2.0168    2.3687 C   0  0  0  0  0  0  0  0  0  0  0  0
   -1.7261   -1.2594    1.2731 N   0  0  0  0  0  0  0  0  0  0  0  0
   -1.0861    1.1607   -1.0195 C   0  0  0  0  0  0  0  0  0  0  0  0
   -1.5358    1.8184    0.1405 C   0  0  0  0  0  0  0  0  0  0  0  0
   -2.5435    2.7857    0.0811 C   0  0  0  0  0  0  0  0  0  0  0  0
   -3.1258    3.1072   -1.1389 C   0  0  0  0  0  0  0  0  0  0  0  0
   -4.3651    4.2977   -1.2090 Cl  0  0  0  0  0  0  0  0  0  0  0  0
   -2.7173    2.4640   -2.3008 C   0  0  0  0  0  0  0  0  0  0  0  0
   -1.7108    1.4945   -2.2412 C   0  0  0  0  0  0  0  0  0  0  0  0
   -1.2876    0.7211   -3.7313 Cl  0  0  0  0  0  0  0  0  0  0  0  0
  1  2  1  0
  2  3  1  0
  2  4  1  0
  4  5  1  0
  4  6  1  0
  4  7  1  0
  7  8  1  0
  9  8  1  1
  9 10  1  0
 10 11  1  0
 11 12  1  0
 12 13  2  0
 13 14  1  0
 14 15  2  0
  9 16  1  0
 16 17  2  0
 17 18  1  0
 18 19  2  0
 19 20  1  0
 19 21  1  0
 21 22  2  0
 22 23  1  0
 15 11  1  0
 22 16  1  0
M  END
