
     RDKit          3D

 21 21  0  0  0  0  0  0  0  0999 V2000
    0.5002    4.3565   -0.6567 C   0  0  0  0  0  0  0  0  0  0  0  0
   -0.5406    3.4065   -1.2141 C   0  0  0  0  0  0  0  0  0  0  0  0
    0.0583    2.1322   -1.3755 O   0  0  0  0  0  0  0  0  0  0  0  0
   -0.8711    0.8059   -1.4648 P   0  0  2  0  0  5  0  0  0  0  0  0
   -2.1907    0.9096   -2.8837 S   0  0  0  0  0  0  0  0  0  0  0  0
   -1.4228    0.5836    0.0735 N   0  0  0  0  0  0  0  0  0  0  0  0
   -1.9088   -0.7287    0.5114 C   0  0  1  0  0  0  0  0  0  0  0  0
   -1.4618   -0.9130    1.9631 C   0  0  0  0  0  0  0  0  0  0  0  0
   -3.4378   -0.8258    0.3653 C   0  0  0  0  0  0  0  0  0  0  0  0
   -3.9935   -2.1958    0.7315 C   0  0  0  0  0  0  0  0  0  0  0  0
    0.2442   -0.3335   -1.7350 O   0  0  0  0  0  0  0  0  0  0  0  0
    1.3171   -0.6873   -0.9660 C   0  0  0  0  0  0  0  0  0  0  0  0
    1.8427    0.1176    0.0458 C   0  0  0  0  0  0  0  0  0  0  0  0
    2.9713   -0.2885    0.7818 C   0  0  0  0  0  0  0  0  0  0  0  0
    3.5396    0.6104    1.8429 C   0  0  0  0  0  0  0  0  0  0  0  0
    3.5980   -1.5038    0.4789 C   0  0  0  0  0  0  0  0  0  0  0  0
    3.0860   -2.3233   -0.5240 C   0  0  0  0  0  0  0  0  0  0  0  0
    1.9480   -1.9089   -1.2275 C   0  0  0  0  0  0  0  0  0  0  0  0
    1.4114   -2.8085   -2.2327 N   0  0  0  0  0  4  0  0  0  0  0  0
    0.2238   -3.1445   -2.1218 O   0  0  0  0  0  0  0  0  0  0  0  0
    2.1965   -3.2151   -3.1008 O   0  0  0  0  0  1  0  0  0  0  0  0
  1  2  1  0
  2  3  1  0
  3  4  1  0
  4  5  2  0
  4  6  1  1
  6  7  1  0
  7  8  1  1
  7  9  1  0
  9 10  1  0
  4 11  1  0
 11 12  1  0
 12 13  2  0
 13 14  1  0
 14 15  1  0
 14 16  2  0
 16 17  1  0
 17 18  2  0
 18 19  1  0
 19 20  2  0
 19 21  1  0
 18 12  1  0
M  CHG  2  19   1  21  -1
M  END
