
     RDKit          3D

 11 12  0  0  0  0  0  0  0  0999 V2000
   -2.4664   -1.4793   -0.2265 C   0  0  0  0  0  0  0  0  0  0  0  0
   -1.4914   -0.4181    0.1684 C   0  0  0  0  0  0  0  0  0  0  0  0
   -1.5454    0.2531    1.3382 C   0  0  0  0  0  0  0  0  0  0  0  0
   -0.4762    1.2695    1.5983 C   0  0  0  0  0  0  0  0  0  0  0  0
   -0.4630    1.8826    2.6611 O   0  0  0  0  0  0  0  0  0  0  0  0
    0.5342    1.4061    0.3825 C   0  0  2  0  0  0  0  0  0  0  0  0
   -0.2626    1.4927   -0.9711 C   0  0  0  0  0  0  0  0  0  0  0  0
   -0.3839   -0.0670   -0.8098 C   0  0  1  0  0  0  0  0  0  0  0  0
    1.0731    0.0073   -0.1632 C   0  0  0  0  0  0  0  0  0  0  0  0
    2.2365    0.0862   -1.1701 C   0  0  0  0  0  0  0  0  0  0  0  0
    1.4455   -1.0461    0.8886 C   0  0  0  0  0  0  0  0  0  0  0  0
  1  2  1  0
  2  3  2  0
  3  4  1  0
  4  5  2  0
  4  6  1  0
  6  7  1  6
  8  7  1  1
  8  9  1  0
  9 10  1  0
  9 11  1  0
  8  2  1  0
  9  6  1  0
M  END
