
     RDKit          3D

 22 23  0  0  0  0  0  0  0  0999 V2000
    6.6775   -0.5980    0.7229 C   0  0  0  0  0  0  0  0  0  0  0  0
    5.3286   -0.8667    0.3369 O   0  0  0  0  0  0  0  0  0  0  0  0
    4.5396    0.2495    0.2619 C   0  0  0  0  0  0  0  0  0  0  0  0
    4.9281    1.3845    0.5060 O   0  0  0  0  0  0  0  0  0  0  0  0
    3.1162   -0.1482   -0.1433 C   0  0  2  0  0  0  0  0  0  0  0  0
    3.1315   -0.6885   -1.5695 C   0  0  0  0  0  0  0  0  0  0  0  0
    2.2883    1.0161   -0.0922 O   0  0  0  0  0  0  0  0  0  0  0  0
    0.9817    0.8811    0.2812 C   0  0  0  0  0  0  0  0  0  0  0  0
    0.3521    2.0812    0.6251 C   0  0  0  0  0  0  0  0  0  0  0  0
   -0.9872    2.0967    1.0180 C   0  0  0  0  0  0  0  0  0  0  0  0
   -1.7119    0.9081    1.0436 C   0  0  0  0  0  0  0  0  0  0  0  0
   -3.0206    0.9801    1.4629 O   0  0  0  0  0  0  0  0  0  0  0  0
   -3.9542    0.3121    0.7009 C   0  0  0  0  0  0  0  0  0  0  0  0
   -4.0811    0.5751   -0.6686 C   0  0  0  0  0  0  0  0  0  0  0  0
   -5.0612   -0.0817   -1.4146 C   0  0  0  0  0  0  0  0  0  0  0  0
   -5.9193   -0.9857   -0.7884 C   0  0  0  0  0  0  0  0  0  0  0  0
   -7.1251   -1.7934   -1.7126 Cl  0  0  0  0  0  0  0  0  0  0  0  0
   -5.8133   -1.2375    0.5783 C   0  0  0  0  0  0  0  0  0  0  0  0
   -4.8333   -0.5811    1.3247 C   0  0  0  0  0  0  0  0  0  0  0  0
   -4.7254   -0.9131    3.0150 Cl  0  0  0  0  0  0  0  0  0  0  0  0
   -1.0901   -0.2978    0.7139 C   0  0  0  0  0  0  0  0  0  0  0  0
    0.2537   -0.3088    0.3231 C   0  0  0  0  0  0  0  0  0  0  0  0
  1  2  1  0
  2  3  1  0
  3  4  2  0
  3  5  1  0
  5  6  1  6
  5  7  1  0
  7  8  1  0
  8  9  2  0
  9 10  1  0
 10 11  2  0
 11 12  1  0
 12 13  1  0
 13 14  2  0
 14 15  1  0
 15 16  2  0
 16 17  1  0
 16 18  1  0
 18 19  2  0
 19 20  1  0
 11 21  1  0
 21 22  2  0
 22  8  1  0
 19 13  1  0
M  END
