
     RDKit          3D

  9  8  0  0  0  0  0  0  0  0999 V2000
    2.9145    0.8571    0.4297 C   0  0  0  0  0  0  0  0  0  0  0  0
    2.5173   -0.4037   -0.3149 C   0  0  0  0  0  0  0  0  0  0  0  0
    1.1366   -0.3357   -0.6998 O   0  0  0  0  0  0  0  0  0  0  0  0
    0.2395   -0.7630    0.2323 C   0  0  0  0  0  0  0  0  0  0  0  0
    0.5233   -1.1881    1.3439 O   0  0  0  0  0  0  0  0  0  0  0  0
   -1.1747   -0.6151   -0.2987 C   0  0  1  0  0  0  0  0  0  0  0  0
   -1.8991   -1.9520   -0.1546 C   0  0  0  0  0  0  0  0  0  0  0  0
   -1.9164    0.4982    0.4512 C   0  0  0  0  0  0  0  0  0  0  0  0
   -1.3426    1.8806    0.1684 C   0  0  0  0  0  0  0  0  0  0  0  0
  1  2  1  0
  2  3  1  0
  3  4  1  0
  4  5  2  0
  4  6  1  0
  6  7  1  1
  6  8  1  0
  8  9  1  0
M  END
