
     RDKit          3D

 15 15  0  0  0  0  0  0  0  0999 V2000
    5.0482    0.5960    0.7947 C   0  0  0  0  0  0  0  0  0  0  0  0
    3.8827    0.0892   -0.0144 C   0  0  0  0  0  0  0  0  0  0  0  0
    3.9989   -1.3515   -0.4303 C   0  0  0  0  0  0  0  0  0  0  0  0
    2.8428    0.8964   -0.3016 C   0  0  0  0  0  0  0  0  0  0  0  0
    1.6236    0.5651   -1.1186 C   0  0  0  0  0  0  0  0  0  0  0  0
    0.4173    0.2775   -0.2193 C   0  0  0  0  0  0  0  0  0  0  0  0
   -0.9034    0.0849   -0.9981 C   0  0  1  0  0  0  0  0  0  0  0  0
   -0.8131   -1.0842   -1.9909 C   0  0  0  0  0  0  0  0  0  0  0  0
   -2.0729   -0.0246   -0.0144 C   0  0  0  0  0  0  0  0  0  0  0  0
   -2.6594   -1.1900    0.3187 C   0  0  0  0  0  0  0  0  0  0  0  0
   -3.7540   -1.2568    1.3209 C   0  0  0  0  0  0  0  0  0  0  0  0
   -4.2525   -2.3459    1.5958 O   0  0  0  0  0  0  0  0  0  0  0  0
   -4.1635    0.0146    2.0236 C   0  0  0  0  0  0  0  0  0  0  0  0
   -3.9758    1.2163    1.1137 C   0  0  0  0  0  0  0  0  0  0  0  0
   -2.5494    1.2895    0.5734 C   0  0  0  0  0  0  0  0  0  0  0  0
  1  2  1  0
  2  3  1  0
  2  4  2  3
  4  5  1  0
  5  6  1  0
  6  7  1  0
  7  8  1  1
  7  9  1  0
  9 10  2  0
 10 11  1  0
 11 12  2  0
 11 13  1  0
 13 14  1  0
 14 15  1  0
 15  9  1  0
M  END
