
     RDKit          3D

 24 26  0  0  0  0  0  0  0  0999 V2000
   -5.4774    2.0410   -1.2359 C   0  0  0  0  0  0  0  0  0  0  0  0
   -4.9847    1.0639   -0.2036 C   0  0  0  0  0  0  0  0  0  0  0  0
   -5.7487   -0.2293   -0.1415 C   0  0  0  0  0  0  0  0  0  0  0  0
   -3.9342    1.3565    0.5885 C   0  0  0  0  0  0  0  0  0  0  0  0
   -3.3497    0.5092    1.6382 C   0  0  2  0  0  0  0  0  0  0  0  0
   -1.8864    0.5891    2.0189 C   0  0  2  0  0  0  0  0  0  0  0  0
   -0.9268    1.5312    1.4003 C   0  0  0  0  0  0  0  0  0  0  0  0
   -1.1300    2.7347    1.3374 O   0  0  0  0  0  0  0  0  0  0  0  0
    0.2019    0.8963    0.9968 O   0  0  0  0  0  0  0  0  0  0  0  0
    1.1494    1.7858    0.4121 C   0  0  0  0  0  0  0  0  0  0  0  0
    2.3003    1.0133    0.0341 N   0  0  0  0  0  0  0  0  0  0  0  0
    2.4331    0.3664   -1.1513 C   0  0  0  0  0  0  0  0  0  0  0  0
    1.6711    0.3400   -2.0996 O   0  0  0  0  0  0  0  0  0  0  0  0
    3.7214   -0.3290   -1.1014 C   0  0  0  0  0  0  0  0  0  0  0  0
    4.2808   -0.0742    0.0837 C   0  0  0  0  0  0  0  0  0  0  0  0
    5.5867   -0.6033    0.5412 C   0  0  0  0  0  0  0  0  0  0  0  0
    6.0776   -1.7234   -0.3925 C   0  0  0  0  0  0  0  0  0  0  0  0
    5.8210   -1.4058   -1.8745 C   0  0  0  0  0  0  0  0  0  0  0  0
    4.3313   -1.1516   -2.1714 C   0  0  0  0  0  0  0  0  0  0  0  0
    3.3669    0.7838    0.8404 C   0  0  0  0  0  0  0  0  0  0  0  0
    3.5757    1.1871    1.9686 O   0  0  0  0  0  0  0  0  0  0  0  0
   -2.4141   -0.6340    1.2780 C   0  0  0  0  0  0  0  0  0  0  0  0
   -2.0261   -0.8671   -0.1663 C   0  0  0  0  0  0  0  0  0  0  0  0
   -2.5523   -1.9138    2.0658 C   0  0  0  0  0  0  0  0  0  0  0  0
  1  2  1  0
  2  3  1  0
  2  4  2  3
  5  4  1  6
  5  6  1  0
  6  7  1  6
  7  8  2  0
  7  9  1  0
  9 10  1  0
 10 11  1  0
 11 12  1  0
 12 13  2  0
 12 14  1  0
 14 15  2  0
 15 16  1  0
 16 17  1  0
 17 18  1  0
 18 19  1  0
 15 20  1  0
 20 21  2  0
  6 22  1  0
 22 23  1  0
 22 24  1  0
 22  5  1  0
 20 11  1  0
 19 14  1  0
M  END
