
     RDKit          3D

 26 28  0  0  0  0  0  0  0  0999 V2000
   -4.5125   -3.0899   -0.6259 C   0  0  0  0  0  0  0  0  0  0  0  0
   -3.4838   -1.9883   -0.5194 C   0  0  0  0  0  0  0  0  0  0  0  0
   -2.0805   -2.5075   -0.3279 C   0  0  0  0  0  0  0  0  0  0  0  0
   -3.7084   -0.7430   -1.3673 C   0  0  2  0  0  0  0  0  0  0  0  0
   -2.5866   -0.1396   -2.1220 C   0  0  0  0  0  0  0  0  0  0  0  0
   -2.1463   -0.6775   -3.1314 O   0  0  0  0  0  0  0  0  0  0  0  0
   -2.1784    1.0413   -1.6085 O   0  0  0  0  0  0  0  0  0  0  0  0
   -1.0454    1.6281   -2.2508 C   0  0  0  0  0  0  0  0  0  0  0  0
    0.2277    1.0524   -1.6828 C   0  0  0  0  0  0  0  0  0  0  0  0
    0.9724    0.1268   -2.4261 C   0  0  0  0  0  0  0  0  0  0  0  0
    2.1187   -0.4561   -1.8912 C   0  0  0  0  0  0  0  0  0  0  0  0
    2.5318   -0.1244   -0.6033 C   0  0  0  0  0  0  0  0  0  0  0  0
    1.8053    0.8051    0.1460 C   0  0  0  0  0  0  0  0  0  0  0  0
    2.1052    1.1559    1.4399 O   0  0  0  0  0  0  0  0  0  0  0  0
    3.4275    1.1628    1.8115 C   0  0  0  0  0  0  0  0  0  0  0  0
    3.7955    0.3877    2.9083 C   0  0  0  0  0  0  0  0  0  0  0  0
    5.1240    0.3989    3.3436 C   0  0  0  0  0  0  0  0  0  0  0  0
    6.0714    1.1903    2.6907 C   0  0  0  0  0  0  0  0  0  0  0  0
    5.6934    1.9823    1.6077 C   0  0  0  0  0  0  0  0  0  0  0  0
    4.3667    1.9767    1.1712 C   0  0  0  0  0  0  0  0  0  0  0  0
    0.6517    1.3807   -0.3886 C   0  0  0  0  0  0  0  0  0  0  0  0
   -3.9283   -0.6896    0.1209 C   0  0  2  0  0  0  0  0  0  0  0  0
   -3.0477    0.0604    1.0247 C   0  0  0  0  0  0  0  0  0  0  0  0
   -3.1549    1.3468    1.3867 C   0  0  0  0  0  0  0  0  0  0  0  0
   -4.4011    2.3610    0.7857 Cl  0  0  0  0  0  0  0  0  0  0  0  0
   -2.0280    2.0406    2.5080 Cl  0  0  0  0  0  0  0  0  0  0  0  0
  1  2  1  0
  2  3  1  0
  2  4  1  0
  4  5  1  1
  5  6  2  0
  5  7  1  0
  7  8  1  0
  8  9  1  0
  9 10  2  0
 10 11  1  0
 11 12  2  0
 12 13  1  0
 13 14  1  0
 14 15  1  0
 15 16  2  0
 16 17  1  0
 17 18  2  0
 18 19  1  0
 19 20  2  0
 13 21  2  0
  4 22  1  0
 22 23  1  1
 23 24  2  3
 24 25  1  0
 24 26  1  0
 22  2  1  0
 21  9  1  0
 20 15  1  0
M  END
