
     RDKit          3D

 26 28  0  0  0  0  0  0  0  0999 V2000
   -5.0844   -0.5921   -1.6111 C   0  0  0  0  0  0  0  0  0  0  0  0
   -5.0253   -1.2708   -0.2600 C   0  0  0  0  0  0  0  0  0  0  0  0
   -6.2936   -2.0154    0.0812 C   0  0  0  0  0  0  0  0  0  0  0  0
   -4.2641   -0.6366    0.8947 C   0  0  2  0  0  0  0  0  0  0  0  0
   -3.6751    0.7041    0.7396 C   0  0  0  0  0  0  0  0  0  0  0  0
   -4.3106    1.8836    0.8238 C   0  0  0  0  0  0  0  0  0  0  0  0
   -3.4354    3.3605    0.6275 Cl  0  0  0  0  0  0  0  0  0  0  0  0
   -6.0050    1.9962    1.1324 Cl  0  0  0  0  0  0  0  0  0  0  0  0
   -3.7093   -1.8721    0.2156 C   0  0  2  0  0  0  0  0  0  0  0  0
   -2.5005   -1.8850   -0.6399 C   0  0  0  0  0  0  0  0  0  0  0  0
   -2.5055   -2.3567   -1.7668 O   0  0  0  0  0  0  0  0  0  0  0  0
   -1.4211   -1.3890    0.0134 O   0  0  0  0  0  0  0  0  0  0  0  0
   -0.2145   -1.4172   -0.7553 C   0  0  0  0  0  0  0  0  0  0  0  0
    0.8583   -0.6379   -0.0312 C   0  0  0  0  0  0  0  0  0  0  0  0
    0.9896   -0.7007    1.3649 C   0  0  0  0  0  0  0  0  0  0  0  0
    1.9894    0.0205    2.0202 C   0  0  0  0  0  0  0  0  0  0  0  0
    2.8863    0.7967    1.2873 C   0  0  0  0  0  0  0  0  0  0  0  0
    2.7935    0.8311   -0.1050 C   0  0  0  0  0  0  0  0  0  0  0  0
    3.6271    1.5945   -0.8910 O   0  0  0  0  0  0  0  0  0  0  0  0
    4.9752    1.5521   -0.6166 C   0  0  0  0  0  0  0  0  0  0  0  0
    5.6730    0.3546   -0.4389 C   0  0  0  0  0  0  0  0  0  0  0  0
    7.0477    0.3829   -0.1978 C   0  0  0  0  0  0  0  0  0  0  0  0
    7.7243    1.6025   -0.1542 C   0  0  0  0  0  0  0  0  0  0  0  0
    7.0296    2.7956   -0.3564 C   0  0  0  0  0  0  0  0  0  0  0  0
    5.6549    2.7702   -0.5945 C   0  0  0  0  0  0  0  0  0  0  0  0
    1.7777    0.1314   -0.7600 C   0  0  0  0  0  0  0  0  0  0  0  0
  1  2  1  0
  2  3  1  0
  2  4  1  0
  4  5  1  6
  5  6  2  3
  6  7  1  0
  6  8  1  0
  4  9  1  0
  9 10  1  6
 10 11  2  0
 10 12  1  0
 12 13  1  0
 13 14  1  0
 14 15  2  0
 15 16  1  0
 16 17  2  0
 17 18  1  0
 18 19  1  0
 19 20  1  0
 20 21  2  0
 21 22  1  0
 22 23  2  0
 23 24  1  0
 24 25  2  0
 18 26  2  0
  9  2  1  0
 26 14  1  0
 25 20  1  0
M  END
