
     RDKit          3D

 24 26  0  0  0  0  0  0  0  0999 V2000
    5.6044    1.7523   -0.0456 C   0  0  0  0  0  0  0  0  0  0  0  0
    4.5245    1.9523   -1.0727 C   0  0  0  0  0  0  0  0  0  0  0  0
    4.9086    2.8285   -2.2332 C   0  0  0  0  0  0  0  0  0  0  0  0
    3.2968    1.4036   -0.9848 C   0  0  0  0  0  0  0  0  0  0  0  0
    2.7872    0.5378    0.0888 C   0  0  1  0  0  0  0  0  0  0  0  0
    1.7340   -0.5009   -0.2429 C   0  0  2  0  0  0  0  0  0  0  0  0
    0.5930   -0.7429    0.6713 C   0  0  0  0  0  0  0  0  0  0  0  0
    0.3320   -0.0153    1.6168 O   0  0  0  0  0  0  0  0  0  0  0  0
   -0.0829   -1.8596    0.3106 O   0  0  0  0  0  0  0  0  0  0  0  0
   -1.1923   -2.1884    1.1496 C   0  0  0  0  0  0  0  0  0  0  0  0
   -2.3382   -1.3868    0.8193 N   0  0  0  0  0  0  0  0  0  0  0  0
   -3.1511   -0.8290    1.7547 C   0  0  0  0  0  0  0  0  0  0  0  0
   -3.0593   -0.8603    2.9676 O   0  0  0  0  0  0  0  0  0  0  0  0
   -4.2638   -0.2172    1.0261 C   0  0  0  0  0  0  0  0  0  0  0  0
   -4.1371   -0.5433   -0.2617 C   0  0  0  0  0  0  0  0  0  0  0  0
   -5.0709   -0.1405   -1.3385 C   0  0  0  0  0  0  0  0  0  0  0  0
   -6.0214    0.9653   -0.8453 C   0  0  0  0  0  0  0  0  0  0  0  0
   -6.5272    0.7094    0.5844 C   0  0  0  0  0  0  0  0  0  0  0  0
   -5.3784    0.5714    1.6006 C   0  0  0  0  0  0  0  0  0  0  0  0
   -2.9303   -1.3608   -0.4025 C   0  0  0  0  0  0  0  0  0  0  0  0
   -2.5951   -1.9139   -1.4335 O   0  0  0  0  0  0  0  0  0  0  0  0
    3.1437   -0.9396    0.1321 C   0  0  0  0  0  0  0  0  0  0  0  0
    3.4055   -1.5381    1.4941 C   0  0  0  0  0  0  0  0  0  0  0  0
    3.9751   -1.5675   -0.9617 C   0  0  0  0  0  0  0  0  0  0  0  0
  1  2  1  0
  2  3  1  0
  2  4  2  3
  5  4  1  6
  5  6  1  0
  6  7  1  1
  7  8  2  0
  7  9  1  0
  9 10  1  0
 10 11  1  0
 11 12  1  0
 12 13  2  0
 12 14  1  0
 14 15  2  0
 15 16  1  0
 16 17  1  0
 17 18  1  0
 18 19  1  0
 15 20  1  0
 20 21  2  0
  6 22  1  0
 22 23  1  0
 22 24  1  0
 22  5  1  0
 20 11  1  0
 19 14  1  0
M  END
