
     RDKit          3D

 26 28  0  0  0  0  0  0  0  0999 V2000
   -5.4204   -1.6977   -0.2966 C   0  0  0  0  0  0  0  0  0  0  0  0
   -4.8333   -0.4775   -0.9675 C   0  0  0  0  0  0  0  0  0  0  0  0
   -4.7529   -0.6132   -2.4704 C   0  0  0  0  0  0  0  0  0  0  0  0
   -5.0703    0.9181   -0.4077 C   0  0  1  0  0  0  0  0  0  0  0  0
   -5.9569    1.1219    0.7492 C   0  0  0  0  0  0  0  0  0  0  0  0
   -5.7641    1.9366    1.7978 C   0  0  0  0  0  0  0  0  0  0  0  0
   -6.9539    2.0450    3.0468 Cl  0  0  0  0  0  0  0  0  0  0  0  0
   -4.3472    2.9083    1.9615 Cl  0  0  0  0  0  0  0  0  0  0  0  0
   -3.7265    0.2453   -0.2133 C   0  0  2  0  0  0  0  0  0  0  0  0
   -2.5206    0.7755   -0.8977 C   0  0  0  0  0  0  0  0  0  0  0  0
   -2.5649    1.6668   -1.7334 O   0  0  0  0  0  0  0  0  0  0  0  0
   -1.4013    0.1356   -0.4753 O   0  0  0  0  0  0  0  0  0  0  0  0
   -0.2071    0.6245   -1.0898 C   0  0  0  0  0  0  0  0  0  0  0  0
    0.9687   -0.1121   -0.5011 C   0  0  0  0  0  0  0  0  0  0  0  0
    1.1168   -1.4929   -0.7054 C   0  0  0  0  0  0  0  0  0  0  0  0
    2.2039   -2.1794   -0.1604 C   0  0  0  0  0  0  0  0  0  0  0  0
    3.1607   -1.4931    0.5870 C   0  0  0  0  0  0  0  0  0  0  0  0
    3.0319   -0.1161    0.7774 C   0  0  0  0  0  0  0  0  0  0  0  0
    3.9212    0.6107    1.5343 O   0  0  0  0  0  0  0  0  0  0  0  0
    5.2610    0.4683    1.2495 C   0  0  0  0  0  0  0  0  0  0  0  0
    6.1306    0.3922    2.3382 C   0  0  0  0  0  0  0  0  0  0  0  0
    7.5056    0.2861    2.1265 C   0  0  0  0  0  0  0  0  0  0  0  0
    8.0109    0.2690    0.8266 C   0  0  0  0  0  0  0  0  0  0  0  0
    7.1435    0.3681   -0.2623 C   0  0  0  0  0  0  0  0  0  0  0  0
    5.7678    0.4752   -0.0530 C   0  0  0  0  0  0  0  0  0  0  0  0
    1.9332    0.5687    0.2549 C   0  0  0  0  0  0  0  0  0  0  0  0
  1  2  1  0
  2  3  1  0
  2  4  1  0
  4  5  1  1
  5  6  2  3
  6  7  1  0
  6  8  1  0
  4  9  1  0
  9 10  1  6
 10 11  2  0
 10 12  1  0
 12 13  1  0
 13 14  1  0
 14 15  2  0
 15 16  1  0
 16 17  2  0
 17 18  1  0
 18 19  1  0
 19 20  1  0
 20 21  2  0
 21 22  1  0
 22 23  2  0
 23 24  1  0
 24 25  2  0
 18 26  2  0
  9  2  1  0
 26 14  1  0
 25 20  1  0
M  END
