
     RDKit          3D

 20 21  0  0  0  0  0  0  0  0999 V2000
   -2.4327    0.1152    1.9248 C   0  0  0  0  0  0  0  0  0  0  0  0
   -2.7245    0.0550    0.4147 C   0  0  0  0  0  0  0  0  0  0  0  0
   -2.9685    1.4842   -0.1007 C   0  0  0  0  0  0  0  0  0  0  0  0
   -4.0461   -0.7271    0.2154 C   0  0  0  0  0  0  0  0  0  0  0  0
   -1.5870   -0.7072   -0.3462 C   0  0  1  0  0  0  0  0  0  0  0  0
   -1.8761   -0.7616   -1.7492 O   0  0  0  0  0  0  0  0  0  0  0  0
   -0.1077   -0.2874   -0.0979 C   0  0  1  0  0  0  0  0  0  0  0  0
    0.8530   -1.2997   -0.7677 C   0  0  0  0  0  0  0  0  0  0  0  0
    2.2754   -1.1837   -0.2624 C   0  0  0  0  0  0  0  0  0  0  0  0
    3.2171   -0.4186   -0.9652 C   0  0  0  0  0  0  0  0  0  0  0  0
    4.5217   -0.2876   -0.4852 C   0  0  0  0  0  0  0  0  0  0  0  0
    4.8911   -0.9229    0.6977 C   0  0  0  0  0  0  0  0  0  0  0  0
    6.4980   -0.7617    1.2904 Cl  0  0  0  0  0  0  0  0  0  0  0  0
    3.9664   -1.6877    1.4056 C   0  0  0  0  0  0  0  0  0  0  0  0
    2.6604   -1.8173    0.9279 C   0  0  0  0  0  0  0  0  0  0  0  0
    0.1921    1.0614   -0.5519 N   0  0  0  0  0  0  0  0  0  0  0  0
    0.8251    2.0513    0.1345 C   0  0  0  0  0  0  0  0  0  0  0  0
    0.9273    3.1155   -0.6275 N   0  0  0  0  0  0  0  0  0  0  0  0
    0.3455    2.7178   -1.7965 C   0  0  0  0  0  0  0  0  0  0  0  0
   -0.1215    1.4653   -1.8029 N   0  0  0  0  0  0  0  0  0  0  0  0
  1  2  1  0
  2  3  1  0
  2  4  1  0
  2  5  1  0
  5  6  1  6
  5  7  1  0
  7  8  1  6
  8  9  1  0
  9 10  2  0
 10 11  1  0
 11 12  2  0
 12 13  1  0
 12 14  1  0
 14 15  2  0
  7 16  1  0
 16 17  1  0
 17 18  2  0
 18 19  1  0
 19 20  2  0
 15  9  1  0
 20 16  1  0
M  END
