
     RDKit          3D

 26 28  0  0  0  0  0  0  0  0999 V2000
   -3.6556   -0.7754    1.2797 C   0  0  0  0  0  0  0  0  0  0  0  0
   -3.8514    0.5617    0.6033 C   0  0  0  0  0  0  0  0  0  0  0  0
   -3.7502    1.7284    1.5565 C   0  0  0  0  0  0  0  0  0  0  0  0
   -4.8135    0.5941   -0.5721 C   0  0  1  0  0  0  0  0  0  0  0  0
   -5.7230    1.7342   -0.7695 C   0  0  0  0  0  0  0  0  0  0  0  0
   -6.9100    1.9384   -0.1774 C   0  0  0  0  0  0  0  0  0  0  0  0
   -7.5645    0.8316    0.9749 Cl  0  0  0  0  0  0  0  0  0  0  0  0
   -7.8417    3.3436   -0.5540 Cl  0  0  0  0  0  0  0  0  0  0  0  0
   -3.3277    0.7833   -0.8098 C   0  0  2  0  0  0  0  0  0  0  0  0
   -2.5569   -0.2605   -1.5230 C   0  0  0  0  0  0  0  0  0  0  0  0
   -2.9911   -0.8315   -2.5114 O   0  0  0  0  0  0  0  0  0  0  0  0
   -1.3465   -0.4567   -0.9464 O   0  0  0  0  0  0  0  0  0  0  0  0
   -0.5678   -1.4675   -1.5885 C   0  0  0  0  0  0  0  0  0  0  0  0
    0.7198   -1.6195   -0.8204 C   0  0  0  0  0  0  0  0  0  0  0  0
    0.7175   -2.1968    0.4593 C   0  0  0  0  0  0  0  0  0  0  0  0
    1.9076   -2.3462    1.1743 C   0  0  0  0  0  0  0  0  0  0  0  0
    3.1119   -1.9100    0.6234 C   0  0  0  0  0  0  0  0  0  0  0  0
    3.1189   -1.3071   -0.6363 C   0  0  0  0  0  0  0  0  0  0  0  0
    4.2766   -0.8863   -1.2507 O   0  0  0  0  0  0  0  0  0  0  0  0
    5.1397   -0.1078   -0.5130 C   0  0  0  0  0  0  0  0  0  0  0  0
    4.7137    0.9784    0.2557 C   0  0  0  0  0  0  0  0  0  0  0  0
    5.6510    1.7473    0.9474 C   0  0  0  0  0  0  0  0  0  0  0  0
    7.0095    1.4407    0.8579 C   0  0  0  0  0  0  0  0  0  0  0  0
    7.4349    0.3698    0.0713 C   0  0  0  0  0  0  0  0  0  0  0  0
    6.4998   -0.4008   -0.6204 C   0  0  0  0  0  0  0  0  0  0  0  0
    1.9340   -1.1775   -1.3633 C   0  0  0  0  0  0  0  0  0  0  0  0
  1  2  1  0
  2  3  1  0
  2  4  1  0
  4  5  1  1
  5  6  2  3
  6  7  1  0
  6  8  1  0
  4  9  1  0
  9 10  1  6
 10 11  2  0
 10 12  1  0
 12 13  1  0
 13 14  1  0
 14 15  2  0
 15 16  1  0
 16 17  2  0
 17 18  1  0
 18 19  1  0
 19 20  1  0
 20 21  2  0
 21 22  1  0
 22 23  2  0
 23 24  1  0
 24 25  2  0
 18 26  2  0
  9  2  1  0
 26 14  1  0
 25 20  1  0
M  END
