
     RDKit          3D

 12 12  0  0  0  0  0  0  0  0999 V2000
    1.4135    0.6287    0.0201 C   0  0  2  0  0  0  0  0  0  0  0  0
    1.5155    1.6373    1.0527 O   0  0  0  0  0  0  0  0  0  0  0  0
   -0.0414    0.1973   -0.0746 C   0  0  0  0  0  0  0  0  0  0  0  0
   -0.4440   -1.1457   -0.1412 C   0  0  0  0  0  0  0  0  0  0  0  0
   -1.7960   -1.4840   -0.2590 C   0  0  0  0  0  0  0  0  0  0  0  0
   -2.7674   -0.4884   -0.3176 C   0  0  0  0  0  0  0  0  0  0  0  0
   -2.3896    0.8489   -0.2590 C   0  0  0  0  0  0  0  0  0  0  0  0
   -1.0401    1.1876   -0.1418 C   0  0  0  0  0  0  0  0  0  0  0  0
    2.4715   -0.4794    0.2118 C   0  0  0  0  0  0  0  0  0  0  0  0
    3.6969    0.0917    0.3607 F   0  0  0  0  0  0  0  0  0  0  0  0
    2.5485   -1.3039   -0.8565 F   0  0  0  0  0  0  0  0  0  0  0  0
    2.2536   -1.2332    1.3107 F   0  0  0  0  0  0  0  0  0  0  0  0
  1  2  1  1
  1  3  1  0
  3  4  2  0
  4  5  1  0
  5  6  2  0
  6  7  1  0
  7  8  2  0
  1  9  1  0
  9 10  1  0
  9 11  1  0
  9 12  1  0
  8  3  1  0
M  END
