
     RDKit          3D

 25 27  0  0  0  0  0  0  0  0999 V2000
   -3.0330   -1.5306    0.0129 C   0  0  0  0  0  0  0  0  0  0  0  0
   -3.2853   -0.5293    1.1537 C   0  0  0  0  0  0  0  0  0  0  0  0
   -3.3079   -1.3466    2.4725 C   0  0  0  0  0  0  0  0  0  0  0  0
   -4.6883    0.0837    0.9904 C   0  0  0  0  0  0  0  0  0  0  0  0
   -2.1511    0.5542    1.2462 C   0  0  2  0  0  0  0  0  0  0  0  0
   -2.4341    1.5148    2.2764 O   0  0  0  0  0  0  0  0  0  0  0  0
   -1.6813    1.3062   -0.0439 C   0  0  1  0  0  0  0  0  0  0  0  0
   -0.9605    0.4181   -0.9176 O   0  0  0  0  0  0  0  0  0  0  0  0
    0.3785    0.2310   -0.7260 C   0  0  0  0  0  0  0  0  0  0  0  0
    0.9794   -0.6097   -1.6645 C   0  0  0  0  0  0  0  0  0  0  0  0
    2.3451   -0.9025   -1.5936 C   0  0  0  0  0  0  0  0  0  0  0  0
    3.1459   -0.3603   -0.5791 C   0  0  0  0  0  0  0  0  0  0  0  0
    4.5840   -0.6639   -0.4997 C   0  0  0  0  0  0  0  0  0  0  0  0
    5.5390    0.3648   -0.4385 C   0  0  0  0  0  0  0  0  0  0  0  0
    6.9047    0.0775   -0.3631 C   0  0  0  0  0  0  0  0  0  0  0  0
    7.3390   -1.2453   -0.3465 C   0  0  0  0  0  0  0  0  0  0  0  0
    6.4095   -2.2804   -0.4061 C   0  0  0  0  0  0  0  0  0  0  0  0
    5.0442   -1.9913   -0.4826 C   0  0  0  0  0  0  0  0  0  0  0  0
    2.5293    0.4821    0.3590 C   0  0  0  0  0  0  0  0  0  0  0  0
    1.1602    0.7755    0.2900 C   0  0  0  0  0  0  0  0  0  0  0  0
   -2.7490    1.9344   -0.8233 N   0  0  0  0  0  0  0  0  0  0  0  0
   -3.1783    1.6155   -2.0799 C   0  0  0  0  0  0  0  0  0  0  0  0
   -4.1036    2.4634   -2.4662 N   0  0  0  0  0  0  0  0  0  0  0  0
   -4.1819    3.3277   -1.4144 C   0  0  0  0  0  0  0  0  0  0  0  0
   -3.3630    3.0620   -0.3952 N   0  0  0  0  0  0  0  0  0  0  0  0
  1  2  1  0
  2  3  1  0
  2  4  1  0
  2  5  1  0
  5  6  1  1
  5  7  1  0
  7  8  1  6
  8  9  1  0
  9 10  2  0
 10 11  1  0
 11 12  2  0
 12 13  1  0
 13 14  2  0
 14 15  1  0
 15 16  2  0
 16 17  1  0
 17 18  2  0
 12 19  1  0
 19 20  2  0
  7 21  1  0
 21 22  1  0
 22 23  2  0
 23 24  1  0
 24 25  2  0
 20  9  1  0
 25 21  1  0
 18 13  1  0
M  END
