
     RDKit          3D

 26 28  0  0  0  0  0  0  0  0999 V2000
   -4.2313   -0.7416   -2.6331 C   0  0  0  0  0  0  0  0  0  0  0  0
   -4.0916   -0.7273   -1.1296 C   0  0  0  0  0  0  0  0  0  0  0  0
   -3.8890    0.6628   -0.5698 C   0  0  0  0  0  0  0  0  0  0  0  0
   -4.8882   -1.7612   -0.3496 C   0  0  2  0  0  0  0  0  0  0  0  0
   -5.5327   -1.4060    0.9266 C   0  0  0  0  0  0  0  0  0  0  0  0
   -6.6819   -0.7338    1.1002 C   0  0  0  0  0  0  0  0  0  0  0  0
   -7.2782   -0.4232    2.6936 Cl  0  0  0  0  0  0  0  0  0  0  0  0
   -7.6161   -0.1521   -0.2297 Cl  0  0  0  0  0  0  0  0  0  0  0  0
   -3.3854   -1.9129   -0.4829 C   0  0  2  0  0  0  0  0  0  0  0  0
   -2.4458   -1.7570    0.6519 C   0  0  0  0  0  0  0  0  0  0  0  0
   -2.5902   -2.3573    1.7071 O   0  0  0  0  0  0  0  0  0  0  0  0
   -1.4122   -0.9374    0.3355 O   0  0  0  0  0  0  0  0  0  0  0  0
   -0.4762   -0.7671    1.4049 C   0  0  0  0  0  0  0  0  0  0  0  0
    0.6384    0.1543    0.9688 C   0  0  0  0  0  0  0  0  0  0  0  0
    0.3792    1.2998    0.2011 C   0  0  0  0  0  0  0  0  0  0  0  0
    1.4130    2.1698   -0.1534 C   0  0  0  0  0  0  0  0  0  0  0  0
    2.7192    1.9095    0.2594 C   0  0  0  0  0  0  0  0  0  0  0  0
    2.9912    0.7698    1.0184 C   0  0  0  0  0  0  0  0  0  0  0  0
    4.2455    0.4692    1.5042 O   0  0  0  0  0  0  0  0  0  0  0  0
    5.3116    0.6378    0.6504 C   0  0  0  0  0  0  0  0  0  0  0  0
    6.4111    1.3455    1.1352 C   0  0  0  0  0  0  0  0  0  0  0  0
    7.5317    1.5276    0.3239 C   0  0  0  0  0  0  0  0  0  0  0  0
    7.5592    0.9816   -0.9614 C   0  0  0  0  0  0  0  0  0  0  0  0
    6.4690    0.2505   -1.4347 C   0  0  0  0  0  0  0  0  0  0  0  0
    5.3454    0.0699   -0.6267 C   0  0  0  0  0  0  0  0  0  0  0  0
    1.9542   -0.0898    1.3913 C   0  0  0  0  0  0  0  0  0  0  0  0
  1  2  1  0
  2  3  1  0
  2  4  1  0
  4  5  1  1
  5  6  2  3
  6  7  1  0
  6  8  1  0
  4  9  1  0
  9 10  1  1
 10 11  2  0
 10 12  1  0
 12 13  1  0
 13 14  1  0
 14 15  2  0
 15 16  1  0
 16 17  2  0
 17 18  1  0
 18 19  1  0
 19 20  1  0
 20 21  2  0
 21 22  1  0
 22 23  2  0
 23 24  1  0
 24 25  2  0
 18 26  2  0
  9  2  1  0
 26 14  1  0
 25 20  1  0
M  END
