
     RDKit          3D

 16 16  0  0  0  0  0  0  0  0999 V2000
    5.1738    1.4876   -1.5812 C   0  0  0  0  0  0  0  0  0  0  0  0
    3.8901    0.9207   -1.0480 C   0  0  0  0  0  0  0  0  0  0  0  0
    2.7117    1.5488   -1.2033 C   0  0  0  0  0  0  0  0  0  0  0  0
    1.3988    0.9981   -0.7205 C   0  0  0  0  0  0  0  0  0  0  0  0
    1.4630   -0.4944   -0.3332 C   0  0  1  0  0  0  0  0  0  0  0  0
    2.7465   -0.7559    0.4819 C   0  0  0  0  0  0  0  0  0  0  0  0
    3.9999   -0.3974   -0.3240 C   0  0  0  0  0  0  0  0  0  0  0  0
    0.1626   -1.0260    0.3593 C   0  0  1  0  0  0  0  0  0  0  0  0
   -0.1073   -0.3560    1.7104 C   0  0  0  0  0  0  0  0  0  0  0  0
   -1.0503   -0.9035   -0.6024 C   0  0  0  0  0  0  0  0  0  0  0  0
   -2.3659   -1.5512   -0.1396 C   0  0  0  0  0  0  0  0  0  0  0  0
   -3.2218   -0.6577    0.7176 C   0  0  0  0  0  0  0  0  0  0  0  0
   -4.1028    0.2715    0.2976 C   0  0  0  0  0  0  0  0  0  0  0  0
   -4.9130    1.0671    1.2869 C   0  0  0  0  0  0  0  0  0  0  0  0
   -4.3654    0.6170   -1.1422 C   0  0  0  0  0  0  0  0  0  0  0  0
    0.3589   -2.4232    0.6355 O   0  0  0  0  0  0  0  0  0  0  0  0
  1  2  1  0
  2  3  2  0
  3  4  1  0
  5  4  1  1
  5  6  1  0
  6  7  1  0
  5  8  1  0
  8  9  1  1
  8 10  1  0
 10 11  1  0
 11 12  1  0
 12 13  2  3
 13 14  1  0
 13 15  1  0
  8 16  1  0
  7  2  1  0
M  END
