
     RDKit          3D

 24 26  0  0  0  0  0  0  0  0999 V2000
    4.8082   -0.5568   -0.9476 C   0  0  0  0  0  0  0  0  0  0  0  0
    3.3270   -0.8116   -0.9774 C   0  0  0  0  0  0  0  0  0  0  0  0
    2.8852   -1.8761   -1.9442 C   0  0  0  0  0  0  0  0  0  0  0  0
    2.4352   -0.1571   -0.2066 C   0  0  0  0  0  0  0  0  0  0  0  0
    2.7178    0.9043    0.7712 C   0  0  1  0  0  0  0  0  0  0  0  0
    1.8826    1.1006    2.0209 C   0  0  1  0  0  0  0  0  0  0  0  0
    0.6967    0.2797    2.3499 C   0  0  0  0  0  0  0  0  0  0  0  0
    0.6157   -0.3840    3.3731 O   0  0  0  0  0  0  0  0  0  0  0  0
   -0.2830    0.4298    1.4247 O   0  0  0  0  0  0  0  0  0  0  0  0
   -1.4328   -0.3608    1.7140 C   0  0  0  0  0  0  0  0  0  0  0  0
   -2.3672   -0.1839    0.6376 N   0  0  0  0  0  0  0  0  0  0  0  0
   -2.3158   -0.8641   -0.5360 C   0  0  0  0  0  0  0  0  0  0  0  0
   -1.5402   -1.7350   -0.8832 O   0  0  0  0  0  0  0  0  0  0  0  0
   -3.4069   -0.3442   -1.3638 C   0  0  0  0  0  0  0  0  0  0  0  0
   -4.0328    0.6091   -0.6686 C   0  0  0  0  0  0  0  0  0  0  0  0
   -5.1882    1.4010   -1.1535 C   0  0  0  0  0  0  0  0  0  0  0  0
   -5.3860    1.2034   -2.6678 C   0  0  0  0  0  0  0  0  0  0  0  0
   -5.1796   -0.2592   -3.1017 C   0  0  0  0  0  0  0  0  0  0  0  0
   -3.7847   -0.7920   -2.7249 C   0  0  0  0  0  0  0  0  0  0  0  0
   -3.3621    0.7392    0.6272 C   0  0  0  0  0  0  0  0  0  0  0  0
   -3.6799    1.5341    1.4918 O   0  0  0  0  0  0  0  0  0  0  0  0
    3.3017    0.5611    2.1334 C   0  0  0  0  0  0  0  0  0  0  0  0
    4.3514    1.4934    2.6896 C   0  0  0  0  0  0  0  0  0  0  0  0
    3.5251   -0.8813    2.5303 C   0  0  0  0  0  0  0  0  0  0  0  0
  1  2  1  0
  2  3  1  0
  2  4  2  3
  5  4  1  6
  5  6  1  0
  6  7  1  6
  7  8  2  0
  7  9  1  0
  9 10  1  0
 10 11  1  0
 11 12  1  0
 12 13  2  0
 12 14  1  0
 14 15  2  0
 15 16  1  0
 16 17  1  0
 17 18  1  0
 18 19  1  0
 15 20  1  0
 20 21  2  0
  6 22  1  0
 22 23  1  0
 22 24  1  0
 22  5  1  0
 20 11  1  0
 19 14  1  0
M  END
