
     RDKit          3D

 10 10  0  0  0  0  0  0  0  0999 V2000
    2.1853   -1.2452    0.3956 C   0  0  0  0  0  0  0  0  0  0  0  0
    1.5386    0.0303   -0.1368 C   0  0  1  0  0  0  0  0  0  0  0  0
    0.0405    0.1606    0.0474 C   0  0  0  0  0  0  0  0  0  0  0  0
   -0.7471   -0.8038    0.6947 C   0  0  0  0  0  0  0  0  0  0  0  0
   -2.1278   -0.6265    0.8186 C   0  0  0  0  0  0  0  0  0  0  0  0
   -2.7493    0.5078    0.3038 C   0  0  0  0  0  0  0  0  0  0  0  0
   -1.9838    1.4770   -0.3387 C   0  0  0  0  0  0  0  0  0  0  0  0
   -0.6035    1.3032   -0.4646 C   0  0  0  0  0  0  0  0  0  0  0  0
   -3.0721   -1.8265    1.6151 Cl  0  0  0  0  0  0  0  0  0  0  0  0
    2.1551    1.1480    0.5025 O   0  0  0  0  0  0  0  0  0  0  0  0
  2  1  1  1
  2  3  1  0
  3  4  2  0
  4  5  1  0
  5  6  2  0
  6  7  1  0
  7  8  2  0
  5  9  1  0
  2 10  1  0
  8  3  1  0
M  END
