
     RDKit          3D

 10  9  0  0  0  0  0  0  0  0999 V2000
    3.5033    0.5649    0.9644 C   0  0  0  0  0  0  0  0  0  0  0  0
    2.7332    1.1575   -0.2073 C   0  0  0  0  0  0  0  0  0  0  0  0
    1.9720    0.1148   -1.0302 C   0  0  0  0  0  0  0  0  0  0  0  0
    0.8495   -0.5356   -0.2729 C   0  0  0  0  0  0  0  0  0  0  0  0
   -0.4477   -0.3716   -0.5731 C   0  0  0  0  0  0  0  0  0  0  0  0
   -1.5085   -1.0597    0.2193 C   0  0  0  0  0  0  0  0  0  0  0  0
   -1.2349   -1.8380    1.1342 O   0  0  0  0  0  0  0  0  0  0  0  0
   -2.9656   -0.7644   -0.1535 C   0  0  2  0  0  0  0  0  0  0  0  0
   -3.3762    0.6206    0.3167 C   0  0  0  0  0  0  0  0  0  0  0  0
   -3.8376   -1.7178    0.4512 O   0  0  0  0  0  0  0  0  0  0  0  0
  1  2  1  0
  2  3  1  0
  3  4  1  0
  4  5  2  0
  5  6  1  0
  6  7  2  0
  6  8  1  0
  8  9  1  1
  8 10  1  0
M  END
