
     RDKit          3D

 10 10  0  0  0  0  0  0  0  0999 V2000
   -2.6272    0.9739   -0.1410 C   0  0  0  0  0  0  0  0  0  0  0  0
   -1.7679   -0.1519    0.4517 C   0  0  0  0  0  0  0  0  0  0  0  0
   -2.5558   -1.4657    0.3320 C   0  0  0  0  0  0  0  0  0  0  0  0
   -0.3618   -0.2432   -0.2208 C   0  0  1  0  0  0  0  0  0  0  0  0
    0.3414    1.1346   -0.2540 C   0  0  0  0  0  0  0  0  0  0  0  0
    1.8149    1.0217   -0.6443 C   0  0  0  0  0  0  0  0  0  0  0  0
    2.5541    0.0854    0.2769 C   0  0  0  0  0  0  0  0  0  0  0  0
    3.8074    0.3249    0.6893 C   0  0  0  0  0  0  0  0  0  0  0  0
    1.8383   -1.1040    0.6863 C   0  0  0  0  0  0  0  0  0  0  0  0
    0.5301   -1.2770    0.4433 C   0  0  0  0  0  0  0  0  0  0  0  0
  1  2  1  0
  2  3  1  0
  4  2  1  1
  4  5  1  0
  5  6  1  0
  6  7  1  0
  7  8  2  0
  7  9  1  0
  9 10  2  0
 10  4  1  0
M  END
