
     RDKit          3D

 10 11  0  0  0  0  0  0  0  0999 V2000
   -2.2591    0.6904    0.9460 C   0  0  0  0  0  0  0  0  0  0  0  0
   -1.0222    0.2735    0.1272 C   0  0  0  0  0  0  0  0  0  0  0  0
   -0.5300   -1.2172    0.3698 C   0  0  1  0  0  0  0  0  0  0  0  0
    0.4847   -1.7525   -0.6581 C   0  0  0  0  0  0  0  0  0  0  0  0
    1.7565   -0.8756   -0.7102 C   0  0  0  0  0  0  0  0  0  0  0  0
    1.5233    0.5159   -0.1660 C   0  0  0  0  0  0  0  0  0  0  0  0
    2.2249    1.5981   -0.5268 C   0  0  0  0  0  0  0  0  0  0  0  0
    0.3710    0.6499    0.7912 C   0  0  2  0  0  0  0  0  0  0  0  0
    0.1996   -0.6643    1.6335 C   0  0  0  0  0  0  0  0  0  0  0  0
   -1.2589    0.7039   -1.3262 C   0  0  0  0  0  0  0  0  0  0  0  0
  1  2  1  0
  2  3  1  0
  3  4  1  6
  4  5  1  0
  5  6  1  0
  6  7  2  0
  6  8  1  0
  8  9  1  1
  2 10  1  0
  8  2  1  0
  9  3  1  0
M  END
