
     RDKit          3D

  8  7  0  0  0  0  0  0  0  0999 V2000
   -2.5599    0.2832   -0.0189 C   0  0  0  0  0  0  0  0  0  0  0  0
   -1.6950   -0.9240    0.3044 C   0  0  0  0  0  0  0  0  0  0  0  0
   -0.5914   -1.2147   -0.7182 C   0  0  0  0  0  0  0  0  0  0  0  0
    0.5812   -0.2271   -0.8378 C   0  0  2  0  0  0  0  0  0  0  0  0
    1.3317    0.0490    0.4826 C   0  0  1  0  0  0  0  0  0  0  0  0
    2.6858    0.7041    0.2288 C   0  0  0  0  0  0  0  0  0  0  0  0
    0.5559    0.9529    1.2786 O   0  0  0  0  0  0  0  0  0  0  0  0
    0.1293    1.0054   -1.4018 O   0  0  0  0  0  0  0  0  0  0  0  0
  1  2  1  0
  2  3  1  0
  3  4  1  0
  4  5  1  0
  5  6  1  6
  5  7  1  0
  4  8  1  1
M  END
