
     RDKit          3D

 20 21  0  0  0  0  0  0  0  0999 V2000
   -0.7859   -1.6050   -1.0889 C   0  0  0  0  0  0  0  0  0  0  0  0
   -1.5829   -1.0769    0.1174 C   0  0  0  0  0  0  0  0  0  0  0  0
   -2.0167   -2.2974    0.9619 C   0  0  0  0  0  0  0  0  0  0  0  0
   -2.8591   -0.4057   -0.4254 C   0  0  0  0  0  0  0  0  0  0  0  0
   -0.7494   -0.0947    1.0233 C   0  0  1  0  0  0  0  0  0  0  0  0
    0.3018   -0.7957    1.6917 O   0  0  0  0  0  0  0  0  0  0  0  0
   -0.2228    1.1953    0.3767 C   0  0  0  0  0  0  0  0  0  0  0  0
    0.9923    1.3427   -0.2172 C   0  0  0  0  0  0  0  0  0  0  0  0
    2.0967    0.3941   -0.3845 C   0  0  0  0  0  0  0  0  0  0  0  0
    2.9565    0.1053    0.6821 C   0  0  0  0  0  0  0  0  0  0  0  0
    4.0274   -0.7750    0.5080 C   0  0  0  0  0  0  0  0  0  0  0  0
    4.2517   -1.3522   -0.7399 C   0  0  0  0  0  0  0  0  0  0  0  0
    5.5684   -2.4374   -0.9563 Cl  0  0  0  0  0  0  0  0  0  0  0  0
    3.4187   -1.0512   -1.8157 C   0  0  0  0  0  0  0  0  0  0  0  0
    2.3473   -0.1715   -1.6395 C   0  0  0  0  0  0  0  0  0  0  0  0
   -1.0671    2.3498    0.4401 N   0  0  0  0  0  0  0  0  0  0  0  0
   -2.2656    2.5179    1.1272 C   0  0  0  0  0  0  0  0  0  0  0  0
   -2.7781    3.7104    0.9402 N   0  0  0  0  0  0  0  0  0  0  0  0
   -1.8601    4.2999    0.1409 C   0  0  0  0  0  0  0  0  0  0  0  0
   -0.8150    3.5464   -0.1864 N   0  0  0  0  0  0  0  0  0  0  0  0
  1  2  1  0
  2  3  1  0
  2  4  1  0
  2  5  1  0
  5  6  1  6
  5  7  1  0
  7  8  2  0
  8  9  1  0
  9 10  2  0
 10 11  1  0
 11 12  2  0
 12 13  1  0
 12 14  1  0
 14 15  2  0
  7 16  1  0
 16 17  1  0
 17 18  2  0
 18 19  1  0
 19 20  2  0
 15  9  1  0
 20 16  1  0
M  END
