
     RDKit          3D

  9  9  0  0  0  0  0  0  0  0999 V2000
    2.0417   -1.0400   -0.4826 C   0  0  0  0  0  0  0  0  0  0  0  0
    1.3443    0.3133   -0.4579 C   0  0  1  0  0  0  0  0  0  0  0  0
   -0.1146    0.2073   -0.0818 C   0  0  0  0  0  0  0  0  0  0  0  0
   -1.1138    0.4610   -1.0261 C   0  0  0  0  0  0  0  0  0  0  0  0
   -2.4408    0.3515   -0.6384 C   0  0  0  0  0  0  0  0  0  0  0  0
   -2.8346    0.0116    0.6068 N   0  0  0  0  0  0  0  0  0  0  0  0
   -1.8578   -0.2338    1.5050 C   0  0  0  0  0  0  0  0  0  0  0  0
   -0.5056   -0.1505    1.2137 C   0  0  0  0  0  0  0  0  0  0  0  0
    2.0223    1.1623    0.4657 O   0  0  0  0  0  0  0  0  0  0  0  0
  2  1  1  1
  2  3  1  0
  3  4  2  0
  4  5  1  0
  5  6  2  0
  6  7  1  0
  7  8  2  0
  2  9  1  0
  8  3  1  0
M  END
