
     RDKit          3D

 11 10  0  0  0  0  0  0  0  0999 V2000
    2.8822    0.3210   -1.3309 C   0  0  0  0  0  0  0  0  0  0  0  0
    2.7296   -0.5355   -0.1039 C   0  0  0  0  0  0  0  0  0  0  0  0
    1.5555   -0.9578    0.4044 C   0  0  0  0  0  0  0  0  0  0  0  0
    0.1767   -0.7174   -0.1503 C   0  0  0  0  0  0  0  0  0  0  0  0
   -0.5404    0.3927    0.6231 C   0  0  0  0  0  0  0  0  0  0  0  0
   -1.9785    0.7142    0.1566 C   0  0  1  0  0  0  0  0  0  0  0  0
   -2.0275    1.1428   -1.3120 C   0  0  0  0  0  0  0  0  0  0  0  0
   -2.9287   -0.4445    0.3845 C   0  0  0  0  0  0  0  0  0  0  0  0
   -4.0523   -0.4381    1.1175 C   0  0  0  0  0  0  0  0  0  0  0  0
   -2.4183    1.8445    0.9199 O   0  0  0  0  0  0  0  0  0  0  0  0
    4.0306   -0.8976    0.5640 C   0  0  0  0  0  0  0  0  0  0  0  0
  1  2  1  0
  2  3  2  3
  3  4  1  0
  4  5  1  0
  5  6  1  0
  6  7  1  6
  6  8  1  0
  8  9  2  0
  6 10  1  0
  2 11  1  0
M  END
