
     RDKit          3D

 12 13  0  0  0  0  0  0  0  0999 V2000
   -0.6850    1.6546   -1.5841 O   0  0  0  0  0  0  0  0  0  0  0  0
   -0.0724    1.5817   -0.3008 C   0  0  1  0  0  0  0  0  0  0  0  0
   -1.1206    1.5633    0.8177 C   0  0  0  0  0  0  0  0  0  0  0  0
   -2.2787    0.5853    0.6232 C   0  0  0  0  0  0  0  0  0  0  0  0
   -1.8777   -0.8868    0.6385 C   0  0  0  0  0  0  0  0  0  0  0  0
   -0.9969   -1.2982   -0.5389 C   0  0  0  0  0  0  0  0  0  0  0  0
    0.4556   -0.9296   -0.3547 C   0  0  0  0  0  0  0  0  0  0  0  0
    1.4103   -1.9622   -0.2991 C   0  0  0  0  0  0  0  0  0  0  0  0
    2.7673   -1.6815   -0.1489 C   0  0  0  0  0  0  0  0  0  0  0  0
    3.1931   -0.3630   -0.0579 C   0  0  0  0  0  0  0  0  0  0  0  0
    2.2600    0.6720   -0.1140 C   0  0  0  0  0  0  0  0  0  0  0  0
    0.8831    0.4093   -0.2578 C   0  0  0  0  0  0  0  0  0  0  0  0
  2  1  1  6
  2  3  1  0
  3  4  1  0
  4  5  1  0
  5  6  1  0
  6  7  1  0
  7  8  2  0
  8  9  1  0
  9 10  2  0
 10 11  1  0
 11 12  2  0
 12  2  1  0
 12  7  1  0
M  END
