
     RDKit          3D

 10 10  0  0  0  0  0  0  0  0999 V2000
   -2.3194   -0.7810    0.6416 C   0  0  0  0  0  0  0  0  0  0  0  0
   -1.5276    0.3606    0.0105 C   0  0  2  0  0  0  0  0  0  0  0  0
   -0.0323    0.1521   -0.1334 C   0  0  0  0  0  0  0  0  0  0  0  0
    0.6263   -1.0252    0.2588 C   0  0  0  0  0  0  0  0  0  0  0  0
    2.0066   -1.1640    0.0844 C   0  0  0  0  0  0  0  0  0  0  0  0
    2.7374   -0.1285   -0.4825 C   0  0  0  0  0  0  0  0  0  0  0  0
    2.1159    1.0465   -0.8789 C   0  0  0  0  0  0  0  0  0  0  0  0
    0.7376    1.1849   -0.7052 C   0  0  0  0  0  0  0  0  0  0  0  0
    4.0596   -0.2662   -0.6479 F   0  0  0  0  0  0  0  0  0  0  0  0
   -1.7334    1.5358    0.7952 O   0  0  0  0  0  0  0  0  0  0  0  0
  2  1  1  1
  2  3  1  0
  3  4  2  0
  4  5  1  0
  5  6  2  0
  6  7  1  0
  7  8  2  0
  6  9  1  0
  2 10  1  0
  8  3  1  0
M  END
