
     RDKit          3D

 24 26  0  0  0  0  0  0  0  0999 V2000
   -4.2104   -0.0990    2.2208 C   0  0  0  0  0  0  0  0  0  0  0  0
   -4.0003   -0.1281    0.7228 C   0  0  0  0  0  0  0  0  0  0  0  0
   -4.5739   -1.3305    0.0302 C   0  0  0  0  0  0  0  0  0  0  0  0
   -3.3446    0.8685    0.0851 C   0  0  0  0  0  0  0  0  0  0  0  0
   -3.0889    0.9918   -1.3586 C   0  0  1  0  0  0  0  0  0  0  0  0
   -1.8644    1.6733   -1.9277 C   0  0  1  0  0  0  0  0  0  0  0  0
   -0.7526    2.2512   -1.1360 C   0  0  0  0  0  0  0  0  0  0  0  0
   -0.8884    2.6928   -0.0079 O   0  0  0  0  0  0  0  0  0  0  0  0
    0.4047    2.2204   -1.8491 O   0  0  0  0  0  0  0  0  0  0  0  0
    1.5671    2.6374   -1.1337 C   0  0  0  0  0  0  0  0  0  0  0  0
    2.1247    1.5240   -0.4226 N   0  0  0  0  0  0  0  0  0  0  0  0
    2.4814    1.5564    0.8868 C   0  0  0  0  0  0  0  0  0  0  0  0
    2.3788    2.4633    1.6888 O   0  0  0  0  0  0  0  0  0  0  0  0
    3.1152    0.2676    1.1789 C   0  0  0  0  0  0  0  0  0  0  0  0
    3.2096   -0.4090    0.0355 C   0  0  0  0  0  0  0  0  0  0  0  0
    3.8343   -1.7394   -0.1172 C   0  0  0  0  0  0  0  0  0  0  0  0
    4.1430   -2.3694    1.2539 C   0  0  0  0  0  0  0  0  0  0  0  0
    4.6525   -1.3422    2.2722 C   0  0  0  0  0  0  0  0  0  0  0  0
    3.6553   -0.1843    2.4822 C   0  0  0  0  0  0  0  0  0  0  0  0
    2.6339    0.4144   -1.0279 C   0  0  0  0  0  0  0  0  0  0  0  0
    2.6708    0.1212   -2.2140 O   0  0  0  0  0  0  0  0  0  0  0  0
   -2.0091    0.1573   -2.0322 C   0  0  0  0  0  0  0  0  0  0  0  0
   -2.3311   -0.4263   -3.3884 C   0  0  0  0  0  0  0  0  0  0  0  0
   -1.1047   -0.7343   -1.2044 C   0  0  0  0  0  0  0  0  0  0  0  0
  1  2  1  0
  2  3  1  0
  2  4  2  3
  5  4  1  1
  5  6  1  0
  6  7  1  1
  7  8  2  0
  7  9  1  0
  9 10  1  0
 10 11  1  0
 11 12  1  0
 12 13  2  0
 12 14  1  0
 14 15  2  0
 15 16  1  0
 16 17  1  0
 17 18  1  0
 18 19  1  0
 15 20  1  0
 20 21  2  0
  6 22  1  0
 22 23  1  0
 22 24  1  0
 22  5  1  0
 20 11  1  0
 19 14  1  0
M  END
