
     RDKit          3D

 13 12  0  0  0  0  0  0  0  0999 V2000
    2.8541   -0.6651   -0.1115 C   0  0  0  0  0  0  0  0  0  0  0  0
    2.2382    0.3099   -0.7959 C   0  0  0  0  0  0  0  0  0  0  0  0
    1.2901    1.3196   -0.2337 C   0  0  0  0  0  0  0  0  0  0  0  0
    0.8010    1.2075    1.2208 C   0  0  2  0  0  0  0  0  0  0  0  0
   -0.0224   -0.0318    1.5066 C   0  0  0  0  0  0  0  0  0  0  0  0
   -1.0882   -0.5544    0.8623 C   0  0  0  0  0  0  0  0  0  0  0  0
   -1.6969   -1.8385    1.3786 C   0  0  0  0  0  0  0  0  0  0  0  0
   -1.7064    0.0663   -0.3033 C   0  0  0  0  0  0  0  0  0  0  0  0
   -2.7062   -0.4457   -1.0401 C   0  0  0  0  0  0  0  0  0  0  0  0
   -3.2971    0.2511   -2.2246 C   0  0  0  0  0  0  0  0  0  0  0  0
    0.0711    2.4725    1.6767 C   0  0  0  0  0  0  0  0  0  0  0  0
    0.9386    2.2376   -0.9791 O   0  0  0  0  0  0  0  0  0  0  0  0
    3.7941   -1.6412   -0.7436 C   0  0  0  0  0  0  0  0  0  0  0  0
  1  2  2  0
  2  3  1  0
  3  4  1  0
  4  5  1  0
  5  6  2  0
  6  7  1  0
  6  8  1  0
  8  9  2  0
  9 10  1  0
  4 11  1  6
  3 12  2  0
  1 13  1  0
M  END
