
     RDKit          3D

 21 21  0  0  0  0  0  0  0  0999 V2000
   -4.4738   -2.1501   -1.3274 C   0  0  0  0  0  0  0  0  0  0  0  0
   -5.2398   -1.0450   -0.6141 C   0  0  0  0  0  0  0  0  0  0  0  0
   -4.5365   -0.5229    0.6370 C   0  0  0  0  0  0  0  0  0  0  0  0
   -3.1449    0.1011    0.4510 C   0  0  0  0  0  0  0  0  0  0  0  0
   -3.1306    1.4538   -0.3034 C   0  0  2  0  0  0  0  0  0  0  0  0
   -2.9508    1.3215   -1.8354 C   0  0  0  0  0  0  0  0  0  0  0  0
   -1.6228    0.7625   -2.3293 C   0  0  0  0  0  0  0  0  0  0  0  0
   -2.0830    2.4083    0.3096 C   0  0  0  0  0  0  0  0  0  0  0  0
   -0.7985    1.7772    0.3616 O   0  0  0  0  0  0  0  0  0  0  0  0
    0.1877    2.5506    0.8721 C   0  0  0  0  0  0  0  0  0  0  0  0
    0.0632    3.6867    1.3015 O   0  0  0  0  0  0  0  0  0  0  0  0
    1.4903    1.8528    0.8654 C   0  0  0  0  0  0  0  0  0  0  0  0
    1.6969    0.6470    0.3107 C   0  0  0  0  0  0  0  0  0  0  0  0
    3.0044   -0.0206    0.2838 C   0  0  0  0  0  0  0  0  0  0  0  0
    3.3735   -0.7373   -0.8591 C   0  0  0  0  0  0  0  0  0  0  0  0
    4.6026   -1.4013   -0.9125 C   0  0  0  0  0  0  0  0  0  0  0  0
    5.4762   -1.3737    0.1765 C   0  0  0  0  0  0  0  0  0  0  0  0
    6.6437   -2.0602   -0.0084 O   0  0  0  0  0  0  0  0  0  0  0  0
    7.5359   -2.1235    1.0970 C   0  0  0  0  0  0  0  0  0  0  0  0
    5.1073   -0.6754    1.3251 C   0  0  0  0  0  0  0  0  0  0  0  0
    3.8765   -0.0077    1.3790 C   0  0  0  0  0  0  0  0  0  0  0  0
  1  2  1  0
  2  3  1  0
  3  4  1  0
  5  4  1  1
  5  6  1  0
  6  7  1  0
  5  8  1  0
  8  9  1  0
  9 10  1  0
 10 11  2  0
 10 12  1  0
 12 13  2  0
 13 14  1  0
 14 15  2  0
 15 16  1  0
 16 17  2  0
 17 18  1  0
 18 19  1  0
 17 20  1  0
 20 21  2  0
 21 14  1  0
M  END
