
     RDKit          3D

 12 12  0  0  0  0  0  0  0  0999 V2000
    2.0675   -0.1596    2.0061 C   0  0  0  0  0  0  0  0  0  0  0  0
    2.1203   -0.3823    0.6849 C   0  0  0  0  0  0  0  0  0  0  0  0
    1.2670    0.2780   -0.3865 C   0  0  1  0  0  0  0  0  0  0  0  0
    2.1536    1.3041   -1.1088 C   0  0  0  0  0  0  0  0  0  0  0  0
    0.7618   -0.7523   -1.4099 C   0  0  0  0  0  0  0  0  0  0  0  0
   -0.2902   -1.7038   -0.8489 C   0  0  0  0  0  0  0  0  0  0  0  0
   -1.0350   -1.1250    0.3532 C   0  0  2  0  0  0  0  0  0  0  0  0
   -2.3264   -1.7282    0.4472 O   0  0  0  0  0  0  0  0  0  0  0  0
   -1.0927    0.4226    0.3306 C   0  0  0  0  0  0  0  0  0  0  0  0
   -1.9816    0.9696   -0.7998 C   0  0  0  0  0  0  0  0  0  0  0  0
   -1.6802    0.9345    1.6572 C   0  0  0  0  0  0  0  0  0  0  0  0
    0.2036    1.0340    0.2088 O   0  0  0  0  0  0  0  0  0  0  0  0
  1  2  2  0
  2  3  1  0
  3  4  1  6
  3  5  1  0
  5  6  1  0
  6  7  1  0
  7  8  1  6
  7  9  1  0
  9 10  1  0
  9 11  1  0
  9 12  1  0
 12  3  1  0
M  END
