
     RDKit          3D

 24 26  0  0  0  0  0  0  0  0999 V2000
   -6.6217    0.3024   -2.1113 C   0  0  0  0  0  0  0  0  0  0  0  0
   -5.6660    0.3548   -0.9510 C   0  0  0  0  0  0  0  0  0  0  0  0
   -6.2388   -0.0996    0.3626 C   0  0  0  0  0  0  0  0  0  0  0  0
   -4.3987    0.7829   -1.1070 C   0  0  0  0  0  0  0  0  0  0  0  0
   -3.3636    0.8851   -0.0669 C   0  0  2  0  0  0  0  0  0  0  0  0
   -1.9060    0.7224   -0.4586 C   0  0  1  0  0  0  0  0  0  0  0  0
   -0.8620    1.5868    0.1368 C   0  0  0  0  0  0  0  0  0  0  0  0
   -1.1038    2.6749    0.6379 O   0  0  0  0  0  0  0  0  0  0  0  0
    0.3575    0.9957    0.0582 O   0  0  0  0  0  0  0  0  0  0  0  0
    1.3831    1.7832    0.6577 C   0  0  0  0  0  0  0  0  0  0  0  0
    2.6293    1.0909    0.4697 N   0  0  0  0  0  0  0  0  0  0  0  0
    3.4403    1.2577   -0.6055 C   0  0  0  0  0  0  0  0  0  0  0  0
    3.3110    2.0116   -1.5506 O   0  0  0  0  0  0  0  0  0  0  0  0
    4.5590    0.3300   -0.4274 C   0  0  0  0  0  0  0  0  0  0  0  0
    4.3663   -0.3340    0.7148 C   0  0  0  0  0  0  0  0  0  0  0  0
    5.2620   -1.3853    1.2495 C   0  0  0  0  0  0  0  0  0  0  0  0
    6.2708   -1.8387    0.1786 C   0  0  0  0  0  0  0  0  0  0  0  0
    6.8251   -0.6636   -0.6446 C   0  0  0  0  0  0  0  0  0  0  0  0
    5.7180    0.1528   -1.3327 C   0  0  0  0  0  0  0  0  0  0  0  0
    3.1129    0.1390    1.3077 C   0  0  0  0  0  0  0  0  0  0  0  0
    2.6423   -0.2720    2.3533 O   0  0  0  0  0  0  0  0  0  0  0  0
   -2.5928   -0.3495    0.3829 C   0  0  0  0  0  0  0  0  0  0  0  0
   -2.2844   -0.4582    1.8588 C   0  0  0  0  0  0  0  0  0  0  0  0
   -2.8239   -1.6895   -0.2753 C   0  0  0  0  0  0  0  0  0  0  0  0
  1  2  1  0
  2  3  1  0
  2  4  2  3
  5  4  1  6
  5  6  1  0
  6  7  1  1
  7  8  2  0
  7  9  1  0
  9 10  1  0
 10 11  1  0
 11 12  1  0
 12 13  2  0
 12 14  1  0
 14 15  2  0
 15 16  1  0
 16 17  1  0
 17 18  1  0
 18 19  1  0
 15 20  1  0
 20 21  2  0
  6 22  1  0
 22 23  1  0
 22 24  1  0
 22  5  1  0
 20 11  1  0
 19 14  1  0
M  END
