
     RDKit          3D

 10 10  0  0  0  0  0  0  0  0999 V2000
    3.6405   -0.2833   -0.1106 C   0  0  0  0  0  0  0  0  0  0  0  0
    2.1554   -0.1872    0.0861 C   0  0  0  0  0  0  0  0  0  0  0  0
    1.4141   -1.2426    0.4655 C   0  0  0  0  0  0  0  0  0  0  0  0
   -0.0800   -1.1980    0.6307 C   0  0  0  0  0  0  0  0  0  0  0  0
   -0.7367    0.0655    0.0311 C   0  0  2  0  0  0  0  0  0  0  0  0
    0.1158    1.2988    0.3833 C   0  0  0  0  0  0  0  0  0  0  0  0
    1.5400    1.1661   -0.1662 C   0  0  0  0  0  0  0  0  0  0  0  0
   -2.2118    0.1561    0.4252 C   0  0  0  0  0  0  0  0  0  0  0  0
   -2.7197    1.0531    1.2884 C   0  0  0  0  0  0  0  0  0  0  0  0
   -3.1243   -0.8368   -0.2511 C   0  0  0  0  0  0  0  0  0  0  0  0
  1  2  1  0
  2  3  2  0
  3  4  1  0
  4  5  1  0
  5  6  1  0
  6  7  1  0
  5  8  1  1
  8  9  2  0
  8 10  1  0
  7  2  1  0
M  END
