
     RDKit          3D

 20 21  0  0  0  0  0  0  0  0999 V2000
   -1.5556   -2.3377    1.4014 C   0  0  0  0  0  0  0  0  0  0  0  0
   -1.4823   -1.0322    0.5748 C   0  0  0  0  0  0  0  0  0  0  0  0
   -2.8676   -0.3678    0.6471 C   0  0  0  0  0  0  0  0  0  0  0  0
   -1.2109   -1.4163   -0.8918 C   0  0  0  0  0  0  0  0  0  0  0  0
   -0.3188   -0.1403    1.1431 C   0  0  2  0  0  0  0  0  0  0  0  0
   -0.4989    0.0983    2.5435 O   0  0  0  0  0  0  0  0  0  0  0  0
    0.0052    1.1791    0.4184 C   0  0  0  0  0  0  0  0  0  0  0  0
    1.0470    1.2898   -0.4448 C   0  0  0  0  0  0  0  0  0  0  0  0
    2.0141    0.2466   -0.8081 C   0  0  0  0  0  0  0  0  0  0  0  0
    2.9731   -0.1953    0.1119 C   0  0  0  0  0  0  0  0  0  0  0  0
    3.9025   -1.1721   -0.2542 C   0  0  0  0  0  0  0  0  0  0  0  0
    3.8815   -1.6985   -1.5440 C   0  0  0  0  0  0  0  0  0  0  0  0
    5.0253   -2.9011   -1.9958 Cl  0  0  0  0  0  0  0  0  0  0  0  0
    2.9420   -1.2537   -2.4722 C   0  0  0  0  0  0  0  0  0  0  0  0
    2.0120   -0.2770   -2.1061 C   0  0  0  0  0  0  0  0  0  0  0  0
   -0.8162    2.2953    0.7359 N   0  0  0  0  0  0  0  0  0  0  0  0
   -0.7909    3.5626    0.1618 C   0  0  0  0  0  0  0  0  0  0  0  0
   -1.6779    4.3630    0.7019 N   0  0  0  0  0  0  0  0  0  0  0  0
   -2.2553    3.5719    1.6353 C   0  0  0  0  0  0  0  0  0  0  0  0
   -1.7863    2.3283    1.7056 N   0  0  0  0  0  0  0  0  0  0  0  0
  1  2  1  0
  2  3  1  0
  2  4  1  0
  2  5  1  0
  5  6  1  1
  5  7  1  0
  7  8  2  0
  8  9  1  0
  9 10  2  0
 10 11  1  0
 11 12  2  0
 12 13  1  0
 12 14  1  0
 14 15  2  0
  7 16  1  0
 16 17  1  0
 17 18  2  0
 18 19  1  0
 19 20  2  0
 15  9  1  0
 20 16  1  0
M  END
