
     RDKit          3D

 14 14  0  0  0  0  0  0  0  0999 V2000
    5.6064    0.4027    0.7999 C   0  0  0  0  0  0  0  0  0  0  0  0
    4.7857   -0.7790    0.3065 C   0  0  0  0  0  0  0  0  0  0  0  0
    3.4338   -0.3806   -0.2922 C   0  0  0  0  0  0  0  0  0  0  0  0
    2.4645    0.2034    0.7392 C   0  0  0  0  0  0  0  0  0  0  0  0
    1.1128    0.6134    0.1422 C   0  0  0  0  0  0  0  0  0  0  0  0
    0.2629   -0.5760   -0.3131 C   0  0  0  0  0  0  0  0  0  0  0  0
   -1.0877   -0.1661   -0.9123 C   0  0  0  0  0  0  0  0  0  0  0  0
   -2.0486    0.4419    0.1116 C   0  0  0  0  0  0  0  0  0  0  0  0
   -3.4159    0.7945   -0.4885 C   0  0  1  0  0  0  0  0  0  0  0  0
   -4.2957   -0.3911   -0.8303 C   0  0  0  0  0  0  0  0  0  0  0  0
   -5.0129   -0.6745    0.4675 C   0  0  0  0  0  0  0  0  0  0  0  0
   -5.0711    0.6843    1.0944 C   0  0  0  0  0  0  0  0  0  0  0  0
   -5.7897    1.0036    2.0269 O   0  0  0  0  0  0  0  0  0  0  0  0
   -4.1733    1.5189    0.4928 O   0  0  0  0  0  0  0  0  0  0  0  0
  1  2  1  0
  2  3  1  0
  3  4  1  0
  4  5  1  0
  5  6  1  0
  6  7  1  0
  7  8  1  0
  9  8  1  1
  9 10  1  0
 10 11  1  0
 11 12  1  0
 12 13  2  0
 12 14  1  0
 14  9  1  0
M  END
