
     RDKit          3D

 18 18  0  0  0  0  0  0  0  0999 V2000
   -2.2107    3.0887    0.3489 C   0  0  0  0  0  0  0  0  0  0  0  0
   -3.2917    2.0222    0.4389 C   0  0  0  0  0  0  0  0  0  0  0  0
   -2.8667    0.6660   -0.1327 C   0  0  0  0  0  0  0  0  0  0  0  0
   -1.7789   -0.0259    0.6973 C   0  0  0  0  0  0  0  0  0  0  0  0
   -1.2763   -1.3594    0.0869 C   0  0  2  0  0  0  0  0  0  0  0  0
   -2.3964   -2.4185    0.0302 C   0  0  0  0  0  0  0  0  0  0  0  0
   -1.9752   -3.7325   -0.6153 C   0  0  0  0  0  0  0  0  0  0  0  0
   -0.0568   -1.8720    0.8820 C   0  0  0  0  0  0  0  0  0  0  0  0
    0.9911   -0.8871    0.9260 O   0  0  0  0  0  0  0  0  0  0  0  0
    1.8175   -0.8537   -0.1462 C   0  0  0  0  0  0  0  0  0  0  0  0
    1.7655   -1.5881   -1.1236 O   0  0  0  0  0  0  0  0  0  0  0  0
    2.8360    0.2186   -0.0153 C   0  0  0  0  0  0  0  0  0  0  0  0
    2.8687    1.0690    1.1012 C   0  0  0  0  0  0  0  0  0  0  0  0
    3.8376    2.0719    1.1965 C   0  0  0  0  0  0  0  0  0  0  0  0
    4.7786    2.2336    0.1807 C   0  0  0  0  0  0  0  0  0  0  0  0
    4.7539    1.3949   -0.9329 C   0  0  0  0  0  0  0  0  0  0  0  0
    3.7883    0.3939   -1.0311 C   0  0  0  0  0  0  0  0  0  0  0  0
    3.8413   -0.3790   -2.1617 O   0  0  0  0  0  0  0  0  0  0  0  0
  1  2  1  0
  2  3  1  0
  3  4  1  0
  5  4  1  1
  5  6  1  0
  6  7  1  0
  5  8  1  0
  8  9  1  0
  9 10  1  0
 10 11  2  0
 10 12  1  0
 12 13  2  0
 13 14  1  0
 14 15  2  0
 15 16  1  0
 16 17  2  0
 17 18  1  0
 17 12  1  0
M  END
