
     RDKit          3D

 11 10  0  0  0  0  0  0  0  0999 V2000
    3.3275    0.6128    0.8907 C   0  0  0  0  0  0  0  0  0  0  0  0
    2.9064   -0.6615    0.2119 C   0  0  0  0  0  0  0  0  0  0  0  0
    4.0526   -1.5307   -0.2367 C   0  0  0  0  0  0  0  0  0  0  0  0
    1.6320   -1.0366   -0.0128 C   0  0  0  0  0  0  0  0  0  0  0  0
    0.3757   -0.3148    0.3905 C   0  0  0  0  0  0  0  0  0  0  0  0
   -0.2827    0.3609   -0.8157 C   0  0  0  0  0  0  0  0  0  0  0  0
   -1.5268    1.1948   -0.4495 C   0  0  1  0  0  0  0  0  0  0  0  0
   -2.0512    1.9149   -1.6963 C   0  0  0  0  0  0  0  0  0  0  0  0
   -2.6466    0.3979    0.2456 C   0  0  0  0  0  0  0  0  0  0  0  0
   -3.1879   -0.7920   -0.5408 C   0  0  0  0  0  0  0  0  0  0  0  0
   -4.2312   -1.4158    0.1996 O   0  0  0  0  0  0  0  0  0  0  0  0
  1  2  1  0
  2  3  1  0
  2  4  2  3
  4  5  1  0
  5  6  1  0
  6  7  1  0
  7  8  1  6
  7  9  1  0
  9 10  1  0
 10 11  1  0
M  END
