
     RDKit          3D

 25 27  0  0  0  0  0  0  0  0999 V2000
   -3.9922    1.8173   -0.4871 C   0  0  0  0  0  0  0  0  0  0  0  0
   -4.2915    0.3126   -0.3571 C   0  0  0  0  0  0  0  0  0  0  0  0
   -4.8673    0.0366    1.0425 C   0  0  0  0  0  0  0  0  0  0  0  0
   -5.4000   -0.0390   -1.3803 C   0  0  0  0  0  0  0  0  0  0  0  0
   -3.0240   -0.5536   -0.6600 C   0  0  1  0  0  0  0  0  0  0  0  0
   -2.7178   -0.4020   -2.0686 O   0  0  0  0  0  0  0  0  0  0  0  0
   -1.7203   -0.2653    0.1423 C   0  0  2  0  0  0  0  0  0  0  0  0
   -0.7040   -1.1106   -0.4570 O   0  0  0  0  0  0  0  0  0  0  0  0
    0.5987   -0.6991   -0.4360 C   0  0  0  0  0  0  0  0  0  0  0  0
    1.1260    0.3492    0.3131 C   0  0  0  0  0  0  0  0  0  0  0  0
    2.4925    0.6518    0.2359 C   0  0  0  0  0  0  0  0  0  0  0  0
    3.3608   -0.0867   -0.5827 C   0  0  0  0  0  0  0  0  0  0  0  0
    4.7947    0.2369   -0.6581 C   0  0  0  0  0  0  0  0  0  0  0  0
    5.7722   -0.7441   -0.4215 C   0  0  0  0  0  0  0  0  0  0  0  0
    7.1339   -0.4373   -0.4926 C   0  0  0  0  0  0  0  0  0  0  0  0
    7.5415    0.8574   -0.8030 C   0  0  0  0  0  0  0  0  0  0  0  0
    6.5894    1.8450   -1.0414 C   0  0  0  0  0  0  0  0  0  0  0  0
    5.2281    1.5368   -0.9688 C   0  0  0  0  0  0  0  0  0  0  0  0
    2.8165   -1.1463   -1.3215 C   0  0  0  0  0  0  0  0  0  0  0  0
    1.4532   -1.4493   -1.2458 C   0  0  0  0  0  0  0  0  0  0  0  0
   -1.8055   -0.5981    1.5504 N   0  0  0  0  0  0  0  0  0  0  0  0
   -1.9318   -1.8324    2.1128 C   0  0  0  0  0  0  0  0  0  0  0  0
   -1.9505   -1.7207    3.4206 N   0  0  0  0  0  0  0  0  0  0  0  0
   -1.7921   -0.3794    3.6180 C   0  0  0  0  0  0  0  0  0  0  0  0
   -1.6941    0.3529    2.5048 N   0  0  0  0  0  0  0  0  0  0  0  0
  1  2  1  0
  2  3  1  0
  2  4  1  0
  2  5  1  0
  5  6  1  6
  5  7  1  0
  7  8  1  6
  8  9  1  0
  9 10  2  0
 10 11  1  0
 11 12  2  0
 12 13  1  0
 13 14  2  0
 14 15  1  0
 15 16  2  0
 16 17  1  0
 17 18  2  0
 12 19  1  0
 19 20  2  0
  7 21  1  0
 21 22  1  0
 22 23  2  0
 23 24  1  0
 24 25  2  0
 20  9  1  0
 25 21  1  0
 18 13  1  0
M  END
