
     RDKit          3D

 26 28  0  0  0  0  0  0  0  0999 V2000
   -5.1139   -0.9959    1.5089 C   0  0  0  0  0  0  0  0  0  0  0  0
   -4.5349   -0.9886    0.1128 C   0  0  0  0  0  0  0  0  0  0  0  0
   -4.7205   -2.3005   -0.6125 C   0  0  0  0  0  0  0  0  0  0  0  0
   -4.5528    0.2729   -0.7382 C   0  0  1  0  0  0  0  0  0  0  0  0
   -5.1992    1.5026   -0.2505 C   0  0  0  0  0  0  0  0  0  0  0  0
   -6.5064    1.8018   -0.2843 C   0  0  0  0  0  0  0  0  0  0  0  0
   -7.6809    0.7132   -0.9295 Cl  0  0  0  0  0  0  0  0  0  0  0  0
   -7.0709    3.3136    0.3333 Cl  0  0  0  0  0  0  0  0  0  0  0  0
   -3.2564   -0.1840   -0.0943 C   0  0  2  0  0  0  0  0  0  0  0  0
   -2.1458   -0.7127   -0.9226 C   0  0  0  0  0  0  0  0  0  0  0  0
   -2.1280   -0.6166   -2.1406 O   0  0  0  0  0  0  0  0  0  0  0  0
   -1.2048   -1.2998   -0.1422 O   0  0  0  0  0  0  0  0  0  0  0  0
   -0.0644   -1.8125   -0.8383 C   0  0  0  0  0  0  0  0  0  0  0  0
    1.0305   -0.7765   -0.8448 C   0  0  0  0  0  0  0  0  0  0  0  0
    1.2303    0.0401   -1.9687 C   0  0  0  0  0  0  0  0  0  0  0  0
    2.2217    1.0237   -1.9645 C   0  0  0  0  0  0  0  0  0  0  0  0
    3.0254    1.2012   -0.8383 C   0  0  0  0  0  0  0  0  0  0  0  0
    2.8422    0.3835    0.2799 C   0  0  0  0  0  0  0  0  0  0  0  0
    3.5772    0.5326    1.4346 O   0  0  0  0  0  0  0  0  0  0  0  0
    4.9465    0.6061    1.3075 C   0  0  0  0  0  0  0  0  0  0  0  0
    5.6023    1.5649    2.0819 C   0  0  0  0  0  0  0  0  0  0  0  0
    6.9920    1.6799    2.0210 C   0  0  0  0  0  0  0  0  0  0  0  0
    7.7248    0.8248    1.1969 C   0  0  0  0  0  0  0  0  0  0  0  0
    7.0709   -0.1508    0.4410 C   0  0  0  0  0  0  0  0  0  0  0  0
    5.6816   -0.2675    0.5027 C   0  0  0  0  0  0  0  0  0  0  0  0
    1.8353   -0.5842    0.2882 C   0  0  0  0  0  0  0  0  0  0  0  0
  1  2  1  0
  2  3  1  0
  2  4  1  0
  4  5  1  1
  5  6  2  3
  6  7  1  0
  6  8  1  0
  4  9  1  0
  9 10  1  6
 10 11  2  0
 10 12  1  0
 12 13  1  0
 13 14  1  0
 14 15  2  0
 15 16  1  0
 16 17  2  0
 17 18  1  0
 18 19  1  0
 19 20  1  0
 20 21  2  0
 21 22  1  0
 22 23  2  0
 23 24  1  0
 24 25  2  0
 18 26  2  0
  9  2  1  0
 26 14  1  0
 25 20  1  0
M  END
