
     RDKit          3D

 21 21  0  0  0  0  0  0  0  0999 V2000
   -0.3407    3.8232    2.2094 C   0  0  0  0  0  0  0  0  0  0  0  0
   -1.2403    3.2526    1.1320 C   0  0  0  0  0  0  0  0  0  0  0  0
   -0.4437    2.4907    0.2413 O   0  0  0  0  0  0  0  0  0  0  0  0
   -1.1290    1.3447   -0.6795 P   0  0  2  0  0  5  0  0  0  0  0  0
   -2.5821    2.0275   -1.7694 S   0  0  0  0  0  0  0  0  0  0  0  0
   -1.4739    0.1219    0.3722 N   0  0  0  0  0  0  0  0  0  0  0  0
   -1.6988   -1.2413   -0.1193 C   0  0  1  0  0  0  0  0  0  0  0  0
   -1.0494   -2.1962    0.8846 C   0  0  0  0  0  0  0  0  0  0  0  0
   -3.2027   -1.5221   -0.2872 C   0  0  0  0  0  0  0  0  0  0  0  0
   -3.4978   -2.8930   -0.8819 C   0  0  0  0  0  0  0  0  0  0  0  0
    0.1364    0.8617   -1.5633 O   0  0  0  0  0  0  0  0  0  0  0  0
    1.3214    0.3243   -1.1457 C   0  0  0  0  0  0  0  0  0  0  0  0
    1.8053    0.4388    0.1584 C   0  0  0  0  0  0  0  0  0  0  0  0
    3.0509   -0.1073    0.5196 C   0  0  0  0  0  0  0  0  0  0  0  0
    3.5650    0.0582    1.9215 C   0  0  0  0  0  0  0  0  0  0  0  0
    3.8342   -0.7502   -0.4470 C   0  0  0  0  0  0  0  0  0  0  0  0
    3.3673   -0.8783   -1.7527 C   0  0  0  0  0  0  0  0  0  0  0  0
    2.1142   -0.3472   -2.0834 C   0  0  0  0  0  0  0  0  0  0  0  0
    1.6356   -0.5413   -3.4403 N   0  0  0  0  0  4  0  0  0  0  0  0
    0.5328   -1.0881   -3.5834 O   0  0  0  0  0  0  0  0  0  0  0  0
    2.3898   -0.1909   -4.3589 O   0  0  0  0  0  1  0  0  0  0  0  0
  1  2  1  0
  2  3  1  0
  3  4  1  0
  4  5  2  0
  4  6  1  1
  6  7  1  0
  7  8  1  1
  7  9  1  0
  9 10  1  0
  4 11  1  0
 11 12  1  0
 12 13  2  0
 13 14  1  0
 14 15  1  0
 14 16  2  0
 16 17  1  0
 17 18  2  0
 18 19  1  0
 19 20  2  0
 19 21  1  0
 18 12  1  0
M  CHG  2  19   1  21  -1
M  END
