
     RDKit          3D

 25 27  0  0  0  0  0  0  0  0999 V2000
   -5.1966    1.2743   -0.1681 C   0  0  0  0  0  0  0  0  0  0  0  0
   -3.6777    1.0169   -0.0104 C   0  0  0  0  0  0  0  0  0  0  0  0
   -2.9571    1.6761   -1.2008 C   0  0  0  0  0  0  0  0  0  0  0  0
   -3.2410    1.7216    1.2908 C   0  0  0  0  0  0  0  0  0  0  0  0
   -3.4145   -0.5302    0.0569 C   0  0  1  0  0  0  0  0  0  0  0  0
   -4.1548   -1.2002   -0.9915 O   0  0  0  0  0  0  0  0  0  0  0  0
   -1.9386   -1.0244   -0.0202 C   0  0  1  0  0  0  0  0  0  0  0  0
   -1.0596   -0.2127    0.7630 O   0  0  0  0  0  0  0  0  0  0  0  0
    0.2547   -0.1135    0.4023 C   0  0  0  0  0  0  0  0  0  0  0  0
    0.9515    0.9154    1.0383 C   0  0  0  0  0  0  0  0  0  0  0  0
    2.3042    1.1415    0.7646 C   0  0  0  0  0  0  0  0  0  0  0  0
    2.9985    0.3348   -0.1472 C   0  0  0  0  0  0  0  0  0  0  0  0
    4.4231    0.5656   -0.4370 C   0  0  0  0  0  0  0  0  0  0  0  0
    4.8847    1.8298   -0.8405 C   0  0  0  0  0  0  0  0  0  0  0  0
    6.2370    2.0494   -1.1172 C   0  0  0  0  0  0  0  0  0  0  0  0
    7.1520    1.0071   -0.9939 C   0  0  0  0  0  0  0  0  0  0  0  0
    6.7163   -0.2536   -0.5943 C   0  0  0  0  0  0  0  0  0  0  0  0
    5.3636   -0.4717   -0.3188 C   0  0  0  0  0  0  0  0  0  0  0  0
    2.2908   -0.7064   -0.7678 C   0  0  0  0  0  0  0  0  0  0  0  0
    0.9342   -0.9323   -0.4960 C   0  0  0  0  0  0  0  0  0  0  0  0
   -1.8711   -2.4134    0.4487 N   0  0  0  0  0  0  0  0  0  0  0  0
   -1.9401   -3.5377   -0.3199 C   0  0  0  0  0  0  0  0  0  0  0  0
   -1.8112   -4.6014    0.4384 N   0  0  0  0  0  0  0  0  0  0  0  0
   -1.6969   -4.0708    1.6919 C   0  0  0  0  0  0  0  0  0  0  0  0
   -1.7392   -2.7381    1.7548 N   0  0  0  0  0  0  0  0  0  0  0  0
  1  2  1  0
  2  3  1  0
  2  4  1  0
  2  5  1  0
  5  6  1  6
  5  7  1  0
  7  8  1  1
  8  9  1  0
  9 10  2  0
 10 11  1  0
 11 12  2  0
 12 13  1  0
 13 14  2  0
 14 15  1  0
 15 16  2  0
 16 17  1  0
 17 18  2  0
 12 19  1  0
 19 20  2  0
  7 21  1  0
 21 22  1  0
 22 23  2  0
 23 24  1  0
 24 25  2  0
 20  9  1  0
 25 21  1  0
 18 13  1  0
M  END
