
     RDKit          3D

 25 27  0  0  0  0  0  0  0  0999 V2000
   -3.4975    0.9987   -2.1932 C   0  0  0  0  0  0  0  0  0  0  0  0
   -3.2946    0.0234   -1.0043 C   0  0  0  0  0  0  0  0  0  0  0  0
   -2.6102   -1.2348   -1.5662 C   0  0  0  0  0  0  0  0  0  0  0  0
   -4.6996   -0.3525   -0.4974 C   0  0  0  0  0  0  0  0  0  0  0  0
   -2.4175    0.7364    0.0868 C   0  0  1  0  0  0  0  0  0  0  0  0
   -3.1313    1.8371    0.6831 O   0  0  0  0  0  0  0  0  0  0  0  0
   -1.7614   -0.0983    1.2299 C   0  0  2  0  0  0  0  0  0  0  0  0
   -0.7576   -0.9931    0.7321 O   0  0  0  0  0  0  0  0  0  0  0  0
    0.5103   -0.5364    0.5188 C   0  0  0  0  0  0  0  0  0  0  0  0
    1.3926   -1.5073    0.0420 C   0  0  0  0  0  0  0  0  0  0  0  0
    2.7256   -1.1905   -0.2372 C   0  0  0  0  0  0  0  0  0  0  0  0
    3.2110    0.1099   -0.0438 C   0  0  0  0  0  0  0  0  0  0  0  0
    4.6121    0.4506   -0.3382 C   0  0  0  0  0  0  0  0  0  0  0  0
    5.4292    1.0571    0.6305 C   0  0  0  0  0  0  0  0  0  0  0  0
    6.7600    1.3802    0.3513 C   0  0  0  0  0  0  0  0  0  0  0  0
    7.2961    1.1033   -0.9035 C   0  0  0  0  0  0  0  0  0  0  0  0
    6.5036    0.5030   -1.8784 C   0  0  0  0  0  0  0  0  0  0  0  0
    5.1736    0.1790   -1.5971 C   0  0  0  0  0  0  0  0  0  0  0  0
    2.3151    1.0766    0.4393 C   0  0  0  0  0  0  0  0  0  0  0  0
    0.9779    0.7602    0.7180 C   0  0  0  0  0  0  0  0  0  0  0  0
   -2.7279   -0.8568    2.0299 N   0  0  0  0  0  0  0  0  0  0  0  0
   -3.5942   -0.3393    2.9511 C   0  0  0  0  0  0  0  0  0  0  0  0
   -4.2584   -1.3108    3.5330 N   0  0  0  0  0  0  0  0  0  0  0  0
   -3.7514   -2.4281    2.9351 C   0  0  0  0  0  0  0  0  0  0  0  0
   -2.8138   -2.2077    2.0112 N   0  0  0  0  0  0  0  0  0  0  0  0
  1  2  1  0
  2  3  1  0
  2  4  1  0
  2  5  1  0
  5  6  1  1
  5  7  1  0
  7  8  1  6
  8  9  1  0
  9 10  2  0
 10 11  1  0
 11 12  2  0
 12 13  1  0
 13 14  2  0
 14 15  1  0
 15 16  2  0
 16 17  1  0
 17 18  2  0
 12 19  1  0
 19 20  2  0
  7 21  1  0
 21 22  1  0
 22 23  2  0
 23 24  1  0
 24 25  2  0
 20  9  1  0
 25 21  1  0
 18 13  1  0
M  END
