
     RDKit          3D

 26 28  0  0  0  0  0  0  0  0999 V2000
   -4.6048   -0.5798    1.9127 C   0  0  0  0  0  0  0  0  0  0  0  0
   -4.1342    0.1057    0.6515 C   0  0  0  0  0  0  0  0  0  0  0  0
   -4.0432   -0.8349   -0.5291 C   0  0  0  0  0  0  0  0  0  0  0  0
   -4.5409    1.5568    0.4579 C   0  0  2  0  0  0  0  0  0  0  0  0
   -4.9002    2.0942   -0.8641 C   0  0  0  0  0  0  0  0  0  0  0  0
   -4.8927    3.3823   -1.2445 C   0  0  0  0  0  0  0  0  0  0  0  0
   -5.3790    3.8219   -2.8436 Cl  0  0  0  0  0  0  0  0  0  0  0  0
   -4.4381    4.6560   -0.1705 Cl  0  0  0  0  0  0  0  0  0  0  0  0
   -3.1061    1.2223    0.8100 C   0  0  2  0  0  0  0  0  0  0  0  0
   -1.9684    1.3598   -0.1294 C   0  0  0  0  0  0  0  0  0  0  0  0
   -1.7993    2.3470   -0.8281 O   0  0  0  0  0  0  0  0  0  0  0  0
   -1.1464    0.2825   -0.0607 O   0  0  0  0  0  0  0  0  0  0  0  0
   -0.0287    0.3633   -0.9504 C   0  0  0  0  0  0  0  0  0  0  0  0
    0.8285   -0.8710   -0.8011 C   0  0  0  0  0  0  0  0  0  0  0  0
    0.2550   -2.1455   -0.6730 C   0  0  0  0  0  0  0  0  0  0  0  0
    1.0601   -3.2830   -0.5749 C   0  0  0  0  0  0  0  0  0  0  0  0
    2.4480   -3.1607   -0.6136 C   0  0  0  0  0  0  0  0  0  0  0  0
    3.0314   -1.9003   -0.7382 C   0  0  0  0  0  0  0  0  0  0  0  0
    4.4065   -1.8593   -0.8127 O   0  0  0  0  0  0  0  0  0  0  0  0
    5.0404   -0.8459   -0.1319 C   0  0  0  0  0  0  0  0  0  0  0  0
    4.8539   -0.6443    1.2382 C   0  0  0  0  0  0  0  0  0  0  0  0
    5.5470    0.3791    1.8860 C   0  0  0  0  0  0  0  0  0  0  0  0
    6.4329    1.1859    1.1692 C   0  0  0  0  0  0  0  0  0  0  0  0
    6.6332    0.9666   -0.1951 C   0  0  0  0  0  0  0  0  0  0  0  0
    5.9427   -0.0564   -0.8459 C   0  0  0  0  0  0  0  0  0  0  0  0
    2.2270   -0.7614   -0.8543 C   0  0  0  0  0  0  0  0  0  0  0  0
  1  2  1  0
  2  3  1  0
  2  4  1  0
  4  5  1  6
  5  6  2  3
  6  7  1  0
  6  8  1  0
  4  9  1  0
  9 10  1  6
 10 11  2  0
 10 12  1  0
 12 13  1  0
 13 14  1  0
 14 15  2  0
 15 16  1  0
 16 17  2  0
 17 18  1  0
 18 19  1  0
 19 20  1  0
 20 21  2  0
 21 22  1  0
 22 23  2  0
 23 24  1  0
 24 25  2  0
 18 26  2  0
  9  2  1  0
 26 14  1  0
 25 20  1  0
M  END
