
     RDKit          3D

 10 11  0  0  0  0  0  0  0  0999 V2000
   -2.0889   -0.1638   -0.5421 C   0  0  0  0  0  0  0  0  0  0  0  0
   -1.3247   -1.2604    0.2189 C   0  0  0  0  0  0  0  0  0  0  0  0
    0.0844   -0.7648    0.1177 C   0  0  0  0  0  0  0  0  0  0  0  0
    1.2555   -1.4650    0.3496 C   0  0  0  0  0  0  0  0  0  0  0  0
    2.4683   -0.7815    0.2358 C   0  0  0  0  0  0  0  0  0  0  0  0
    2.4941    0.5834   -0.0932 C   0  0  0  0  0  0  0  0  0  0  0  0
    1.3069    1.2847   -0.3129 C   0  0  0  0  0  0  0  0  0  0  0  0
    0.1092    0.5962   -0.2089 C   0  0  0  0  0  0  0  0  0  0  0  0
   -1.2830    1.1321   -0.3611 C   0  0  2  0  0  0  0  0  0  0  0  0
   -1.7025    1.8051    0.8167 O   0  0  0  0  0  0  0  0  0  0  0  0
  1  2  1  0
  2  3  1  0
  3  4  2  0
  4  5  1  0
  5  6  2  0
  6  7  1  0
  7  8  2  0
  8  9  1  0
  9 10  1  1
  9  1  1  0
  8  3  1  0
M  END
