
     RDKit          3D

 22 24  0  0  0  0  0  0  0  0999 V2000
   -2.4177   -2.9785   -0.4436 C   0  0  0  0  0  0  0  0  0  0  0  0
   -1.1977   -2.0631   -0.6660 C   0  0  0  0  0  0  0  0  0  0  0  0
   -1.0880   -1.7918   -2.1797 C   0  0  0  0  0  0  0  0  0  0  0  0
    0.0724   -2.7638   -0.1515 C   0  0  0  0  0  0  0  0  0  0  0  0
    1.0931   -1.6441    0.0184 C   0  0  0  0  0  0  0  0  0  0  0  0
    0.2983   -0.3477    0.3208 C   0  0  1  0  0  0  0  0  0  0  0  0
    0.7785    0.8162   -0.5757 C   0  0  0  0  0  0  0  0  0  0  0  0
    2.1722    1.2921   -0.2197 C   0  0  0  0  0  0  0  0  0  0  0  0
    2.3669    2.1130    0.9012 C   0  0  0  0  0  0  0  0  0  0  0  0
    3.6485    2.5467    1.2479 C   0  0  0  0  0  0  0  0  0  0  0  0
    4.7418    2.1597    0.4758 C   0  0  0  0  0  0  0  0  0  0  0  0
    6.3228    2.6891    0.9051 Cl  0  0  0  0  0  0  0  0  0  0  0  0
    4.5641    1.3469   -0.6412 C   0  0  0  0  0  0  0  0  0  0  0  0
    3.2816    0.9155   -0.9899 C   0  0  0  0  0  0  0  0  0  0  0  0
   -1.2099   -0.7631    0.2120 C   0  0  2  0  0  0  0  0  0  0  0  0
   -1.6227   -1.1838    1.5372 O   0  0  0  0  0  0  0  0  0  0  0  0
   -2.2177    0.2975   -0.2810 C   0  0  0  0  0  0  0  0  0  0  0  0
   -2.5649    1.3129    0.6951 N   0  0  0  0  0  0  0  0  0  0  0  0
   -3.8168    1.6994    1.0746 C   0  0  0  0  0  0  0  0  0  0  0  0
   -3.7289    2.6322    1.9940 N   0  0  0  0  0  0  0  0  0  0  0  0
   -2.3794    2.7822    2.1509 C   0  0  0  0  0  0  0  0  0  0  0  0
   -1.6238    1.9802    1.3929 N   0  0  0  0  0  0  0  0  0  0  0  0
  1  2  1  0
  2  3  1  0
  2  4  1  0
  4  5  1  0
  5  6  1  0
  6  7  1  6
  7  8  1  0
  8  9  2  0
  9 10  1  0
 10 11  2  0
 11 12  1  0
 11 13  1  0
 13 14  2  0
  6 15  1  0
 15 16  1  1
 15 17  1  0
 17 18  1  0
 18 19  1  0
 19 20  2  0
 20 21  1  0
 21 22  2  0
 15  2  1  0
 22 18  1  0
 14  8  1  0
M  END
