
     RDKit          3D

 11 11  0  0  0  0  0  0  0  0999 V2000
    3.8943    0.0691   -0.2820 C   0  0  0  0  0  0  0  0  0  0  0  0
    2.4042   -0.0599   -0.1547 C   0  0  0  0  0  0  0  0  0  0  0  0
    1.8207   -0.5810    0.9368 C   0  0  0  0  0  0  0  0  0  0  0  0
    0.3318   -0.6876    1.1170 C   0  0  0  0  0  0  0  0  0  0  0  0
   -0.5144    0.1130    0.0862 C   0  0  1  0  0  0  0  0  0  0  0  0
    0.1315   -0.0182   -1.3063 C   0  0  0  0  0  0  0  0  0  0  0  0
    1.5945    0.4431   -1.3210 C   0  0  0  0  0  0  0  0  0  0  0  0
   -1.9991   -0.3798    0.0853 C   0  0  0  0  0  0  0  0  0  0  0  0
   -2.6585   -0.2844    1.4701 C   0  0  0  0  0  0  0  0  0  0  0  0
   -2.8853    0.3778   -0.9151 C   0  0  0  0  0  0  0  0  0  0  0  0
   -0.5046    1.5101    0.4230 O   0  0  0  0  0  0  0  0  0  0  0  0
  1  2  1  0
  2  3  2  0
  3  4  1  0
  4  5  1  0
  5  6  1  0
  6  7  1  0
  5  8  1  0
  8  9  1  0
  8 10  1  0
  5 11  1  1
  7  2  1  0
M  END
