
     RDKit          3D

 12 12  0  0  0  0  0  0  0  0999 V2000
    1.8508   -0.0366    0.9095 O   0  0  0  0  0  0  0  0  0  0  0  0
    1.8627   -0.3370   -0.4187 C   0  0  0  0  0  0  0  0  0  0  0  0
    2.7693   -0.0529   -1.1975 O   0  0  0  0  0  0  0  0  0  0  0  0
    0.6312   -1.1551   -0.8351 C   0  0  2  0  0  0  0  0  0  0  0  0
    0.6355   -1.4176   -2.2431 O   0  0  0  0  0  0  0  0  0  0  0  0
   -0.6741   -0.4805   -0.4695 C   0  0  0  0  0  0  0  0  0  0  0  0
   -1.3836   -0.8810    0.6736 C   0  0  0  0  0  0  0  0  0  0  0  0
   -2.5726   -0.2426    1.0319 C   0  0  0  0  0  0  0  0  0  0  0  0
   -3.0653    0.8040    0.2552 C   0  0  0  0  0  0  0  0  0  0  0  0
   -2.3707    1.2142   -0.8805 C   0  0  0  0  0  0  0  0  0  0  0  0
   -1.1814    0.5780   -1.2401 C   0  0  0  0  0  0  0  0  0  0  0  0
    2.9763    0.7256    1.3458 C   0  0  0  0  0  0  0  0  0  0  0  0
  1  2  1  0
  2  3  2  0
  2  4  1  0
  4  5  1  6
  4  6  1  0
  6  7  2  0
  7  8  1  0
  8  9  2  0
  9 10  1  0
 10 11  2  0
  1 12  1  0
 11  6  1  0
M  END
