
     RDKit          3D

  8  7  0  0  0  0  0  0  0  0999 V2000
   -1.2506    0.0798    0.2242 C   0  0  2  0  0  0  0  0  0  0  0  0
   -1.8605    0.8733   -0.8108 O   0  0  0  0  0  0  0  0  0  0  0  0
    0.2906   -0.0205    0.0165 C   0  0  0  0  0  0  0  0  0  0  0  0
    0.7898   -1.1329    0.7681 O   0  0  0  0  0  0  0  0  0  0  0  0
    2.1651   -1.3804    0.5128 C   0  0  0  0  0  0  0  0  0  0  0  0
    0.9697    1.1681    0.4379 O   0  0  0  0  0  0  0  0  0  0  0  0
    0.6728    2.3143   -0.3442 C   0  0  0  0  0  0  0  0  0  0  0  0
   -1.9483   -1.2778    0.2370 C   0  0  0  0  0  0  0  0  0  0  0  0
  1  2  1  0
  1  3  1  0
  3  4  1  0
  4  5  1  0
  3  6  1  0
  6  7  1  0
  1  8  1  6
M  END
