
     RDKit          3D

 10 10  0  0  0  0  0  0  0  0999 V2000
    3.6013   -0.5221   -0.2195 C   0  0  0  0  0  0  0  0  0  0  0  0
    2.1263   -0.2929   -0.0579 C   0  0  0  0  0  0  0  0  0  0  0  0
    1.5656   -0.0711    1.1443 C   0  0  0  0  0  0  0  0  0  0  0  0
    0.0997    0.2004    1.3447 C   0  0  0  0  0  0  0  0  0  0  0  0
   -0.6376    0.5438    0.0340 C   0  0  1  0  0  0  0  0  0  0  0  0
   -0.2002   -0.4143   -1.0845 C   0  0  0  0  0  0  0  0  0  0  0  0
    1.3102   -0.3236   -1.3276 C   0  0  0  0  0  0  0  0  0  0  0  0
   -2.1513    0.5898    0.2128 C   0  0  0  0  0  0  0  0  0  0  0  0
   -2.8217    1.7520    0.1242 C   0  0  0  0  0  0  0  0  0  0  0  0
   -2.8838   -0.6975    0.4832 C   0  0  0  0  0  0  0  0  0  0  0  0
  1  2  1  0
  2  3  2  0
  3  4  1  0
  4  5  1  0
  5  6  1  0
  6  7  1  0
  5  8  1  1
  8  9  2  0
  8 10  1  0
  7  2  1  0
M  END
