
     RDKit          3D

 21 21  0  0  0  0  0  0  0  0999 V2000
   -5.3420    1.8819    1.6390 C   0  0  0  0  0  0  0  0  0  0  0  0
   -4.7687    3.1448    1.0034 C   0  0  0  0  0  0  0  0  0  0  0  0
   -3.6247    2.8434    0.0404 C   0  0  0  0  0  0  0  0  0  0  0  0
   -2.5428    2.2620    0.7529 O   0  0  0  0  0  0  0  0  0  0  0  0
   -1.6098    1.1398    0.0206 P   0  0  0  0  0  5  0  0  0  0  0  0
   -0.7937    1.8944   -1.5895 S   0  0  0  0  0  0  0  0  0  0  0  0
   -2.7739    0.0434   -0.2767 O   0  0  0  0  0  0  0  0  0  0  0  0
   -2.4296   -1.1873   -0.8913 C   0  0  0  0  0  0  0  0  0  0  0  0
   -3.5869   -2.1675   -0.7253 C   0  0  0  0  0  0  0  0  0  0  0  0
   -3.8297   -2.5161    0.7388 C   0  0  0  0  0  0  0  0  0  0  0  0
   -0.4446    0.4045    1.6203 S   0  0  0  0  0  0  0  0  0  0  0  0
    1.2765    0.6255    1.0906 C   0  0  0  0  0  0  0  0  0  0  0  0
    1.6677   -0.2994   -0.0535 C   0  0  0  0  0  0  0  0  0  0  0  0
    0.8178   -1.0007   -0.6110 O   0  0  0  0  0  0  0  0  0  0  0  0
    3.0073   -0.3441   -0.4466 N   0  0  0  0  0  0  0  0  0  0  0  0
    3.3935   -1.4652   -1.3157 C   0  0  0  0  0  0  0  0  0  0  0  0
    4.6410   -2.1955   -0.7887 C   0  0  0  0  0  0  0  0  0  0  0  0
    4.7785   -2.0715    0.7316 C   0  0  0  0  0  0  0  0  0  0  0  0
    4.7911   -0.6044    1.2018 C   0  0  0  0  0  0  0  0  0  0  0  0
    4.1718    0.3296    0.1546 C   0  0  2  0  0  0  0  0  0  0  0  0
    4.0198    1.7647    0.6501 C   0  0  0  0  0  0  0  0  0  0  0  0
  1  2  1  0
  2  3  1  0
  3  4  1  0
  4  5  1  0
  5  6  2  0
  5  7  1  0
  7  8  1  0
  8  9  1  0
  9 10  1  0
  5 11  1  0
 11 12  1  0
 12 13  1  0
 13 14  2  0
 13 15  1  0
 15 16  1  0
 16 17  1  0
 17 18  1  0
 18 19  1  0
 19 20  1  0
 20 21  1  1
 20 15  1  0
M  END
