
     RDKit          3D

 20 21  0  0  0  0  0  0  0  0999 V2000
   -3.1755   -0.8315    0.3099 C   0  0  0  0  0  0  0  0  0  0  0  0
   -2.6859    0.3704   -0.5200 C   0  0  0  0  0  0  0  0  0  0  0  0
   -2.4083   -0.1133   -1.9562 C   0  0  0  0  0  0  0  0  0  0  0  0
   -3.8595    1.3801   -0.5783 C   0  0  0  0  0  0  0  0  0  0  0  0
   -1.4336    1.0715    0.1280 C   0  0  2  0  0  0  0  0  0  0  0  0
   -1.2606    2.3650   -0.4905 O   0  0  0  0  0  0  0  0  0  0  0  0
   -0.0608    0.3318    0.0834 C   0  0  1  0  0  0  0  0  0  0  0  0
    1.0830    1.2369    0.6148 C   0  0  0  0  0  0  0  0  0  0  0  0
    2.4634    0.6924    0.3063 C   0  0  0  0  0  0  0  0  0  0  0  0
    3.1556   -0.0690    1.2586 C   0  0  0  0  0  0  0  0  0  0  0  0
    4.4155   -0.5938    0.9643 C   0  0  0  0  0  0  0  0  0  0  0  0
    4.9902   -0.3564   -0.2818 C   0  0  0  0  0  0  0  0  0  0  0  0
    6.5425   -1.0026   -0.6459 Cl  0  0  0  0  0  0  0  0  0  0  0  0
    4.3151    0.4008   -1.2369 C   0  0  0  0  0  0  0  0  0  0  0  0
    3.0535    0.9235   -0.9446 C   0  0  0  0  0  0  0  0  0  0  0  0
   -0.0600   -0.9320    0.8013 N   0  0  0  0  0  0  0  0  0  0  0  0
    0.3288   -2.1513    0.3345 C   0  0  0  0  0  0  0  0  0  0  0  0
    0.2203   -3.0425    1.2924 N   0  0  0  0  0  0  0  0  0  0  0  0
   -0.2208   -2.3036    2.3520 C   0  0  0  0  0  0  0  0  0  0  0  0
   -0.4000   -1.0033    2.1037 N   0  0  0  0  0  0  0  0  0  0  0  0
  1  2  1  0
  2  3  1  0
  2  4  1  0
  2  5  1  0
  5  6  1  6
  5  7  1  0
  7  8  1  1
  8  9  1  0
  9 10  2  0
 10 11  1  0
 11 12  2  0
 12 13  1  0
 12 14  1  0
 14 15  2  0
  7 16  1  0
 16 17  1  0
 17 18  2  0
 18 19  1  0
 19 20  2  0
 15  9  1  0
 20 16  1  0
M  END
