
     RDKit          3D

 20 21  0  0  0  0  0  0  0  0999 V2000
    4.3903   -0.5540   -0.0209 C   0  0  0  0  0  0  0  0  0  0  0  0
    3.0361   -0.8896   -0.6251 C   0  0  0  0  0  0  0  0  0  0  0  0
    1.8908   -0.3187    0.2138 C   0  0  0  0  0  0  0  0  0  0  0  0
    0.5254   -0.6727   -0.4031 C   0  0  0  0  0  0  0  0  0  0  0  0
   -0.7035   -0.0922    0.3652 C   0  0  2  0  0  0  0  0  0  0  0  0
   -0.5575   -0.5571    1.7134 O   0  0  0  0  0  0  0  0  0  0  0  0
   -2.0326   -0.6067   -0.2624 C   0  0  0  0  0  0  0  0  0  0  0  0
   -2.1256   -2.0469   -0.3806 N   0  0  0  0  0  0  0  0  0  0  0  0
   -2.4259   -2.7784   -1.4852 C   0  0  0  0  0  0  0  0  0  0  0  0
   -2.4071   -4.0552   -1.1807 N   0  0  0  0  0  0  0  0  0  0  0  0
   -2.0963   -4.0526    0.1493 C   0  0  0  0  0  0  0  0  0  0  0  0
   -1.9063   -2.8428    0.6854 N   0  0  0  0  0  0  0  0  0  0  0  0
   -0.7857    1.4519    0.3925 C   0  0  0  0  0  0  0  0  0  0  0  0
   -0.1415    2.2173   -0.6066 C   0  0  0  0  0  0  0  0  0  0  0  0
   -0.1982    3.6153   -0.6201 C   0  0  0  0  0  0  0  0  0  0  0  0
   -0.9175    4.2874    0.3568 C   0  0  0  0  0  0  0  0  0  0  0  0
   -0.9902    6.0049    0.3385 Cl  0  0  0  0  0  0  0  0  0  0  0  0
   -1.5927    3.5735    1.3366 C   0  0  0  0  0  0  0  0  0  0  0  0
   -1.5396    2.1716    1.3522 C   0  0  0  0  0  0  0  0  0  0  0  0
   -2.5044    1.4163    2.5779 Cl  0  0  0  0  0  0  0  0  0  0  0  0
  1  2  1  0
  2  3  1  0
  3  4  1  0
  4  5  1  0
  5  6  1  1
  5  7  1  0
  7  8  1  0
  8  9  1  0
  9 10  2  0
 10 11  1  0
 11 12  2  0
  5 13  1  0
 13 14  2  0
 14 15  1  0
 15 16  2  0
 16 17  1  0
 16 18  1  0
 18 19  2  0
 19 20  1  0
 12  8  1  0
 19 13  1  0
M  END
