
     RDKit          3D

  9  9  0  0  0  0  0  0  0  0999 V2000
    2.8660    1.0276    0.9151 O   0  0  0  0  0  0  0  0  0  0  0  0
    1.8514    0.3996    0.6528 C   0  0  0  0  0  0  0  0  0  0  0  0
    1.5623   -0.8428    1.1387 O   0  0  0  0  0  0  0  0  0  0  0  0
    0.4235   -1.3489    0.4382 C   0  0  0  0  0  0  0  0  0  0  0  0
   -0.3697   -0.1250   -0.0004 C   0  0  0  0  0  0  0  0  0  0  0  0
   -1.2748   -0.4421   -1.1918 C   0  0  0  0  0  0  0  0  0  0  0  0
   -1.2291    0.3940    1.1688 C   0  0  0  0  0  0  0  0  0  0  0  0
    0.7595    0.8615   -0.3003 C   0  0  2  0  0  0  0  0  0  0  0  0
    1.2025    0.7847   -1.6468 O   0  0  0  0  0  0  0  0  0  0  0  0
  1  2  2  0
  2  3  1  0
  3  4  1  0
  4  5  1  0
  5  6  1  0
  5  7  1  0
  5  8  1  0
  8  9  1  6
  8  2  1  0
M  END
