
     RDKit          3D

 26 28  0  0  0  0  0  0  0  0999 V2000
   -3.8284   -0.5560   -2.6449 C   0  0  0  0  0  0  0  0  0  0  0  0
   -3.9392   -0.1075   -1.2077 C   0  0  0  0  0  0  0  0  0  0  0  0
   -3.6366   -1.2106   -0.2171 C   0  0  0  0  0  0  0  0  0  0  0  0
   -3.5098    1.3203   -0.8875 C   0  0  2  0  0  0  0  0  0  0  0  0
   -2.6805    1.5961    0.3089 C   0  0  0  0  0  0  0  0  0  0  0  0
   -3.1351    1.9971    1.3697 O   0  0  0  0  0  0  0  0  0  0  0  0
   -1.3722    1.3582    0.0445 O   0  0  0  0  0  0  0  0  0  0  0  0
   -0.5094    1.5976    1.1576 C   0  0  0  0  0  0  0  0  0  0  0  0
    0.9085    1.4139    0.6819 C   0  0  0  0  0  0  0  0  0  0  0  0
    1.7105    2.5250    0.3825 C   0  0  0  0  0  0  0  0  0  0  0  0
    3.0121    2.3527   -0.0906 C   0  0  0  0  0  0  0  0  0  0  0  0
    3.5262    1.0687   -0.2712 C   0  0  0  0  0  0  0  0  0  0  0  0
    2.7404   -0.0461    0.0348 C   0  0  0  0  0  0  0  0  0  0  0  0
    3.1553   -1.3483   -0.1512 O   0  0  0  0  0  0  0  0  0  0  0  0
    4.4784   -1.6275    0.1004 C   0  0  0  0  0  0  0  0  0  0  0  0
    5.0422   -1.4293    1.3626 C   0  0  0  0  0  0  0  0  0  0  0  0
    6.3899   -1.7309    1.5700 C   0  0  0  0  0  0  0  0  0  0  0  0
    7.1613   -2.2433    0.5243 C   0  0  0  0  0  0  0  0  0  0  0  0
    6.5846   -2.4696   -0.7266 C   0  0  0  0  0  0  0  0  0  0  0  0
    5.2374   -2.1705   -0.9370 C   0  0  0  0  0  0  0  0  0  0  0  0
    1.4318    0.1262    0.4912 C   0  0  0  0  0  0  0  0  0  0  0  0
   -4.9780    0.9538   -0.8851 C   0  0  2  0  0  0  0  0  0  0  0  0
   -5.7859    0.8687    0.3407 C   0  0  0  0  0  0  0  0  0  0  0  0
   -6.8749    0.1102    0.5466 C   0  0  0  0  0  0  0  0  0  0  0  0
   -7.7129    0.1754    2.0591 Cl  0  0  0  0  0  0  0  0  0  0  0  0
   -7.5074   -0.9438   -0.6671 Cl  0  0  0  0  0  0  0  0  0  0  0  0
  1  2  1  0
  2  3  1  0
  2  4  1  0
  4  5  1  1
  5  6  2  0
  5  7  1  0
  7  8  1  0
  8  9  1  0
  9 10  2  0
 10 11  1  0
 11 12  2  0
 12 13  1  0
 13 14  1  0
 14 15  1  0
 15 16  2  0
 16 17  1  0
 17 18  2  0
 18 19  1  0
 19 20  2  0
 13 21  2  0
  4 22  1  0
 22 23  1  1
 23 24  2  3
 24 25  1  0
 24 26  1  0
 22  2  1  0
 21  9  1  0
 20 15  1  0
M  END
