
     RDKit          3D

 10 11  0  0  0  0  0  0  0  0999 V2000
    0.9031   -0.3346   -1.8298 C   0  0  0  0  0  0  0  0  0  0  0  0
    0.8039   -0.2294   -0.3017 C   0  0  0  0  0  0  0  0  0  0  0  0
   -0.2693   -1.1849    0.3194 C   0  0  2  0  0  0  0  0  0  0  0  0
   -1.6394   -1.0610   -0.3853 C   0  0  0  0  0  0  0  0  0  0  0  0
   -2.1102    0.3489    0.0173 C   0  0  0  0  0  0  0  0  0  0  0  0
   -1.0081    0.8167    0.9822 C   0  0  1  0  0  0  0  0  0  0  0  0
   -0.5992   -0.4934    1.6520 C   0  0  0  0  0  0  0  0  0  0  0  0
    0.2353    1.1101    0.1610 C   0  0  0  0  0  0  0  0  0  0  0  0
    0.7400    2.3288   -0.0672 C   0  0  0  0  0  0  0  0  0  0  0  0
    2.1952   -0.5011    0.2996 C   0  0  0  0  0  0  0  0  0  0  0  0
  1  2  1  0
  2  3  1  0
  3  4  1  6
  4  5  1  0
  6  5  1  6
  6  7  1  0
  6  8  1  0
  8  9  2  0
  2 10  1  0
  8  2  1  0
  7  3  1  0
M  END
