
     RDKit          3D

 24 26  0  0  0  0  0  0  0  0999 V2000
   -6.2298   -0.4268   -0.5411 C   0  0  0  0  0  0  0  0  0  0  0  0
   -4.7946   -0.3694   -0.0953 C   0  0  0  0  0  0  0  0  0  0  0  0
   -4.4811   -1.1757    1.1344 C   0  0  0  0  0  0  0  0  0  0  0  0
   -3.8800    0.3567   -0.7675 C   0  0  0  0  0  0  0  0  0  0  0  0
   -2.4511    0.4962   -0.4504 C   0  0  1  0  0  0  0  0  0  0  0  0
   -1.7391    1.7795   -0.8310 C   0  0  2  0  0  0  0  0  0  0  0  0
   -0.3675    1.7684   -1.3898 C   0  0  0  0  0  0  0  0  0  0  0  0
    0.4365    2.6508   -1.1334 O   0  0  0  0  0  0  0  0  0  0  0  0
   -0.1552    0.7007   -2.1945 O   0  0  0  0  0  0  0  0  0  0  0  0
    1.1675    0.6007   -2.7252 C   0  0  0  0  0  0  0  0  0  0  0  0
    2.0815    0.1061   -1.7319 N   0  0  0  0  0  0  0  0  0  0  0  0
    3.3395    0.5930   -1.5692 C   0  0  0  0  0  0  0  0  0  0  0  0
    3.8929    1.5022   -2.1591 O   0  0  0  0  0  0  0  0  0  0  0  0
    3.9856   -0.2529   -0.5644 C   0  0  0  0  0  0  0  0  0  0  0  0
    3.1460   -1.2454   -0.2634 C   0  0  0  0  0  0  0  0  0  0  0  0
    3.4364   -2.3508    0.6787 C   0  0  0  0  0  0  0  0  0  0  0  0
    4.9359   -2.3890    1.0253 C   0  0  0  0  0  0  0  0  0  0  0  0
    5.5260   -0.9854    1.2414 C   0  0  0  0  0  0  0  0  0  0  0  0
    5.3358   -0.0719    0.0169 C   0  0  0  0  0  0  0  0  0  0  0  0
    1.9354   -1.0698   -1.0683 C   0  0  0  0  0  0  0  0  0  0  0  0
    1.0220   -1.8725   -1.1147 O   0  0  0  0  0  0  0  0  0  0  0  0
   -1.9838    1.4516    0.6361 C   0  0  0  0  0  0  0  0  0  0  0  0
   -0.8347    0.9878    1.5000 C   0  0  0  0  0  0  0  0  0  0  0  0
   -2.9701    2.3233    1.3760 C   0  0  0  0  0  0  0  0  0  0  0  0
  1  2  1  0
  2  3  1  0
  2  4  2  3
  5  4  1  6
  5  6  1  0
  6  7  1  1
  7  8  2  0
  7  9  1  0
  9 10  1  0
 10 11  1  0
 11 12  1  0
 12 13  2  0
 12 14  1  0
 14 15  2  0
 15 16  1  0
 16 17  1  0
 17 18  1  0
 18 19  1  0
 15 20  1  0
 20 21  2  0
  6 22  1  0
 22 23  1  0
 22 24  1  0
 22  5  1  0
 20 11  1  0
 19 14  1  0
M  END
