
     RDKit          3D

 12 12  0  0  0  0  0  0  0  0999 V2000
    1.2689    0.2135    2.4466 C   0  0  0  0  0  0  0  0  0  0  0  0
    1.4879    0.8914    1.3105 C   0  0  0  0  0  0  0  0  0  0  0  0
    1.2993    0.3790   -0.1096 C   0  0  2  0  0  0  0  0  0  0  0  0
    2.6971    0.1228   -0.6933 C   0  0  0  0  0  0  0  0  0  0  0  0
    0.5769    1.4200   -0.9805 C   0  0  0  0  0  0  0  0  0  0  0  0
   -0.8954    1.5971   -0.6233 C   0  0  0  0  0  0  0  0  0  0  0  0
   -1.4892    0.3794    0.0821 C   0  0  1  0  0  0  0  0  0  0  0  0
   -2.8924    0.3277   -0.1773 O   0  0  0  0  0  0  0  0  0  0  0  0
   -0.7806   -0.9363   -0.3180 C   0  0  0  0  0  0  0  0  0  0  0  0
   -1.3060   -2.0891    0.5557 C   0  0  0  0  0  0  0  0  0  0  0  0
   -1.0364   -1.3257   -1.7841 C   0  0  0  0  0  0  0  0  0  0  0  0
    0.6415   -0.8949   -0.1011 O   0  0  0  0  0  0  0  0  0  0  0  0
  1  2  2  0
  2  3  1  0
  3  4  1  6
  3  5  1  0
  5  6  1  0
  6  7  1  0
  7  8  1  6
  7  9  1  0
  9 10  1  0
  9 11  1  0
  9 12  1  0
 12  3  1  0
M  END
