
     RDKit          3D

 21 22  0  0  0  0  0  0  0  0999 V2000
   -4.1804    2.6332   -0.1036 C   0  0  0  0  0  0  0  0  0  0  0  0
   -3.6529    1.9571    1.1478 C   0  0  0  0  0  0  0  0  0  0  0  0
   -3.1128    0.6667    0.8221 O   0  0  0  0  0  0  0  0  0  0  0  0
   -1.8115    0.6443    0.4173 C   0  0  0  0  0  0  0  0  0  0  0  0
   -1.0921    1.6328    0.3346 O   0  0  0  0  0  0  0  0  0  0  0  0
   -1.3336   -0.7783    0.1582 C   0  0  2  0  0  0  0  0  0  0  0  0
   -2.3820   -1.6607   -0.5067 C   0  0  0  0  0  0  0  0  0  0  0  0
   -0.9277   -1.3643    1.3902 O   0  0  0  0  0  0  0  0  0  0  0  0
    0.4378   -1.3802    1.4375 C   0  0  0  0  0  0  0  0  0  0  0  0
    1.0103   -1.6975    2.4679 O   0  0  0  0  0  0  0  0  0  0  0  0
    0.9703   -1.0271    0.2317 N   0  0  0  0  0  0  0  0  0  0  0  0
    2.3618   -0.9930   -0.0985 C   0  0  0  0  0  0  0  0  0  0  0  0
    3.3416   -1.5174    0.7621 C   0  0  0  0  0  0  0  0  0  0  0  0
    4.7011   -1.4750    0.4283 C   0  0  0  0  0  0  0  0  0  0  0  0
    5.8645   -2.1410    1.5092 Cl  0  0  0  0  0  0  0  0  0  0  0  0
    5.1251   -0.9074   -0.7643 C   0  0  0  0  0  0  0  0  0  0  0  0
    4.1739   -0.3783   -1.6237 C   0  0  0  0  0  0  0  0  0  0  0  0
    4.6773    0.3416   -3.1047 Cl  0  0  0  0  0  0  0  0  0  0  0  0
    2.8124   -0.4173   -1.3000 C   0  0  0  0  0  0  0  0  0  0  0  0
   -0.0592   -0.7781   -0.6376 C   0  0  0  0  0  0  0  0  0  0  0  0
   -0.0232   -0.6229   -1.8517 O   0  0  0  0  0  0  0  0  0  0  0  0
  1  2  1  0
  2  3  1  0
  3  4  1  0
  4  5  2  0
  4  6  1  0
  6  7  1  6
  6  8  1  0
  8  9  1  0
  9 10  2  0
  9 11  1  0
 11 12  1  0
 12 13  2  0
 13 14  1  0
 14 15  1  0
 14 16  2  0
 16 17  1  0
 17 18  1  0
 17 19  2  0
 11 20  1  0
 20 21  2  0
 20  6  1  0
 19 12  1  0
M  END
