
     RDKit          3D

 12 12  0  0  0  0  0  0  0  0999 V2000
   -2.1365    1.0422    1.7885 C   0  0  0  0  0  0  0  0  0  0  0  0
   -1.4830   -0.0950    1.5103 C   0  0  0  0  0  0  0  0  0  0  0  0
   -1.1463   -0.6778    0.1518 C   0  0  1  0  0  0  0  0  0  0  0  0
   -2.0088   -1.9464    0.0050 C   0  0  0  0  0  0  0  0  0  0  0  0
   -1.4040    0.2161   -1.0779 C   0  0  0  0  0  0  0  0  0  0  0  0
   -0.3569    1.3071   -1.2409 C   0  0  0  0  0  0  0  0  0  0  0  0
    1.0339    0.6844   -1.2696 C   0  0  1  0  0  0  0  0  0  0  0  0
    1.9905    1.7348   -1.3957 O   0  0  0  0  0  0  0  0  0  0  0  0
    1.2791   -0.2081   -0.0262 C   0  0  0  0  0  0  0  0  0  0  0  0
    1.5498    0.6114    1.2461 C   0  0  0  0  0  0  0  0  0  0  0  0
    2.5245   -1.0821   -0.2697 C   0  0  0  0  0  0  0  0  0  0  0  0
    0.2109   -1.1522    0.1711 O   0  0  0  0  0  0  0  0  0  0  0  0
  1  2  2  0
  2  3  1  0
  3  4  1  6
  3  5  1  0
  5  6  1  0
  6  7  1  0
  7  8  1  1
  7  9  1  0
  9 10  1  0
  9 11  1  0
  9 12  1  0
 12  3  1  0
M  END
