
     RDKit          3D

 10 11  0  0  0  0  0  0  0  0999 V2000
    2.7324   -0.9952    0.0493 C   0  0  0  0  0  0  0  0  0  0  0  0
    1.5483   -0.0888    0.0232 C   0  0  0  0  0  0  0  0  0  0  0  0
    1.4877    1.0968   -0.6166 C   0  0  0  0  0  0  0  0  0  0  0  0
    0.2201    1.9274   -0.5931 C   0  0  0  0  0  0  0  0  0  0  0  0
   -0.8529    1.1952    0.2414 C   0  0  2  0  0  0  0  0  0  0  0  0
   -0.2390    0.7293    1.6034 C   0  0  0  0  0  0  0  0  0  0  0  0
    0.3018   -0.4913    0.7720 C   0  0  1  0  0  0  0  0  0  0  0  0
   -1.0370   -0.3525   -0.0834 C   0  0  0  0  0  0  0  0  0  0  0  0
   -0.9986   -0.7731   -1.5585 C   0  0  0  0  0  0  0  0  0  0  0  0
   -2.2793   -1.0104    0.5500 C   0  0  0  0  0  0  0  0  0  0  0  0
  1  2  1  0
  2  3  2  0
  3  4  1  0
  5  4  1  6
  5  6  1  0
  7  6  1  1
  7  8  1  0
  8  9  1  0
  8 10  1  0
  7  2  1  0
  8  5  1  0
M  END
