
     RDKit          3D

 24 26  0  0  0  0  0  0  0  0999 V2000
   -6.3397    0.1014   -0.3087 C   0  0  0  0  0  0  0  0  0  0  0  0
   -5.5304    1.2109   -0.9198 C   0  0  0  0  0  0  0  0  0  0  0  0
   -6.2742    2.0687   -1.9066 C   0  0  0  0  0  0  0  0  0  0  0  0
   -4.2329    1.4371   -0.6314 C   0  0  0  0  0  0  0  0  0  0  0  0
   -3.3867    0.6816    0.3043 C   0  0  2  0  0  0  0  0  0  0  0  0
   -1.8897    0.6404    0.0681 C   0  0  1  0  0  0  0  0  0  0  0  0
   -0.9436    0.7656    1.2014 C   0  0  0  0  0  0  0  0  0  0  0  0
   -1.2866    1.1007    2.3253 O   0  0  0  0  0  0  0  0  0  0  0  0
    0.3180    0.4519    0.8169 O   0  0  0  0  0  0  0  0  0  0  0  0
    1.2554    0.5605    1.8855 C   0  0  0  0  0  0  0  0  0  0  0  0
    2.5573    0.2524    1.3603 N   0  0  0  0  0  0  0  0  0  0  0  0
    3.0990   -0.9917    1.3311 C   0  0  0  0  0  0  0  0  0  0  0  0
    2.6410   -2.0382    1.7518 O   0  0  0  0  0  0  0  0  0  0  0  0
    4.4022   -0.8595    0.6751 C   0  0  0  0  0  0  0  0  0  0  0  0
    4.5713    0.4237    0.3474 C   0  0  0  0  0  0  0  0  0  0  0  0
    5.7518    0.9739   -0.3575 C   0  0  0  0  0  0  0  0  0  0  0  0
    6.6083   -0.1603   -0.9486 C   0  0  0  0  0  0  0  0  0  0  0  0
    6.7459   -1.3539    0.0113 C   0  0  0  0  0  0  0  0  0  0  0  0
    5.3832   -1.9404    0.4226 C   0  0  0  0  0  0  0  0  0  0  0  0
    3.3804    1.1606    0.7770 C   0  0  0  0  0  0  0  0  0  0  0  0
    3.2134    2.3554    0.6208 O   0  0  0  0  0  0  0  0  0  0  0  0
   -2.7255   -0.6187   -0.1232 C   0  0  0  0  0  0  0  0  0  0  0  0
   -2.6608   -1.7226    0.9043 C   0  0  0  0  0  0  0  0  0  0  0  0
   -2.8796   -1.1318   -1.5355 C   0  0  0  0  0  0  0  0  0  0  0  0
  1  2  1  0
  2  3  1  0
  2  4  2  3
  5  4  1  6
  5  6  1  0
  6  7  1  1
  7  8  2  0
  7  9  1  0
  9 10  1  0
 10 11  1  0
 11 12  1  0
 12 13  2  0
 12 14  1  0
 14 15  2  0
 15 16  1  0
 16 17  1  0
 17 18  1  0
 18 19  1  0
 15 20  1  0
 20 21  2  0
  6 22  1  0
 22 23  1  0
 22 24  1  0
 22  5  1  0
 20 11  1  0
 19 14  1  0
M  END
