
     RDKit          3D

 24 26  0  0  0  0  0  0  0  0999 V2000
   -4.7773    1.0012    0.4419 C   0  0  0  0  0  0  0  0  0  0  0  0
   -3.3219    1.1834    0.1127 C   0  0  0  0  0  0  0  0  0  0  0  0
   -2.9283    2.5861   -0.2631 C   0  0  0  0  0  0  0  0  0  0  0  0
   -2.4133    0.1878    0.1377 C   0  0  0  0  0  0  0  0  0  0  0  0
   -2.6515   -1.2229    0.4797 C   0  0  2  0  0  0  0  0  0  0  0  0
   -1.8452   -2.3553   -0.1265 C   0  0  2  0  0  0  0  0  0  0  0  0
   -0.7224   -2.1368   -1.0652 C   0  0  0  0  0  0  0  0  0  0  0  0
   -0.7152   -2.5773   -2.2050 O   0  0  0  0  0  0  0  0  0  0  0  0
    0.2912   -1.4599   -0.4721 O   0  0  0  0  0  0  0  0  0  0  0  0
    1.3637   -1.1817   -1.3672 C   0  0  0  0  0  0  0  0  0  0  0  0
    2.3331   -0.4003   -0.6504 N   0  0  0  0  0  0  0  0  0  0  0  0
    3.4027   -0.9166    0.0049 C   0  0  0  0  0  0  0  0  0  0  0  0
    3.7728   -2.0738    0.0753 O   0  0  0  0  0  0  0  0  0  0  0  0
    4.0766    0.2125    0.6494 C   0  0  0  0  0  0  0  0  0  0  0  0
    3.3867    1.3204    0.3683 C   0  0  0  0  0  0  0  0  0  0  0  0
    3.7212    2.6786    0.8560 C   0  0  0  0  0  0  0  0  0  0  0  0
    4.7690    2.6077    1.9810 C   0  0  0  0  0  0  0  0  0  0  0  0
    5.8730    1.5766    1.6926 C   0  0  0  0  0  0  0  0  0  0  0  0
    5.3136    0.1609    1.4622 C   0  0  0  0  0  0  0  0  0  0  0  0
    2.2436    0.9414   -0.4650 C   0  0  0  0  0  0  0  0  0  0  0  0
    1.4039    1.7180   -0.8810 O   0  0  0  0  0  0  0  0  0  0  0  0
   -3.2994   -2.1570   -0.5312 C   0  0  0  0  0  0  0  0  0  0  0  0
   -4.3042   -3.1536   -0.0047 C   0  0  0  0  0  0  0  0  0  0  0  0
   -3.6261   -1.6720   -1.9256 C   0  0  0  0  0  0  0  0  0  0  0  0
  1  2  1  0
  2  3  1  0
  2  4  2  3
  5  4  1  6
  5  6  1  0
  6  7  1  6
  7  8  2  0
  7  9  1  0
  9 10  1  0
 10 11  1  0
 11 12  1  0
 12 13  2  0
 12 14  1  0
 14 15  2  0
 15 16  1  0
 16 17  1  0
 17 18  1  0
 18 19  1  0
 15 20  1  0
 20 21  2  0
  6 22  1  0
 22 23  1  0
 22 24  1  0
 22  5  1  0
 20 11  1  0
 19 14  1  0
M  END
