
     RDKit          3D

 11 11  0  0  0  0  0  0  0  0999 V2000
   -3.1080    1.0623   -0.1002 C   0  0  0  0  0  0  0  0  0  0  0  0
   -1.9405    0.0841   -0.0590 C   0  0  2  0  0  0  0  0  0  0  0  0
   -1.0991    0.1775   -1.3362 C   0  0  0  0  0  0  0  0  0  0  0  0
    0.0987   -0.7804   -1.3561 C   0  0  0  0  0  0  0  0  0  0  0  0
    1.1555   -0.4435   -0.3322 C   0  0  0  0  0  0  0  0  0  0  0  0
    1.2939   -1.2205    0.8256 C   0  0  0  0  0  0  0  0  0  0  0  0
    2.2628   -0.9040    1.7789 C   0  0  0  0  0  0  0  0  0  0  0  0
    3.1020    0.1914    1.5842 C   0  0  0  0  0  0  0  0  0  0  0  0
    2.9731    0.9711    0.4362 C   0  0  0  0  0  0  0  0  0  0  0  0
    2.0044    0.6559   -0.5180 C   0  0  0  0  0  0  0  0  0  0  0  0
   -2.4573   -1.2391    0.0652 O   0  0  0  0  0  0  0  0  0  0  0  0
  2  1  1  6
  2  3  1  0
  3  4  1  0
  4  5  1  0
  5  6  2  0
  6  7  1  0
  7  8  2  0
  8  9  1  0
  9 10  2  0
  2 11  1  0
 10  5  1  0
M  END
