
     RDKit          3D

 26 28  0  0  0  0  0  0  0  0999 V2000
    6.1947   -0.6407   -1.4963 C   0  0  0  0  0  0  0  0  0  0  0  0
    4.8858    0.0350   -1.1607 C   0  0  0  0  0  0  0  0  0  0  0  0
    4.8608    1.4983   -1.5363 C   0  0  0  0  0  0  0  0  0  0  0  0
    4.0938   -0.3716    0.0712 C   0  0  2  0  0  0  0  0  0  0  0  0
    4.6140   -1.3881    0.9996 C   0  0  0  0  0  0  0  0  0  0  0  0
    5.4702   -1.1980    2.0140 C   0  0  0  0  0  0  0  0  0  0  0  0
    5.9554   -2.5256    3.0076 Cl  0  0  0  0  0  0  0  0  0  0  0  0
    6.1251    0.3552    2.3812 Cl  0  0  0  0  0  0  0  0  0  0  0  0
    3.6207   -0.8010   -1.3044 C   0  0  1  0  0  0  0  0  0  0  0  0
    2.3847   -0.2344   -1.8933 C   0  0  0  0  0  0  0  0  0  0  0  0
    2.3117    0.0728   -3.0731 O   0  0  0  0  0  0  0  0  0  0  0  0
    1.3865   -0.1535   -0.9795 O   0  0  0  0  0  0  0  0  0  0  0  0
    0.1649    0.3668   -1.5102 C   0  0  0  0  0  0  0  0  0  0  0  0
   -0.8806    0.3372   -0.4236 C   0  0  0  0  0  0  0  0  0  0  0  0
   -0.6450    0.9558    0.8144 C   0  0  0  0  0  0  0  0  0  0  0  0
   -1.6100    0.9182    1.8236 C   0  0  0  0  0  0  0  0  0  0  0  0
   -2.8263    0.2730    1.6041 C   0  0  0  0  0  0  0  0  0  0  0  0
   -3.0864   -0.3134    0.3638 C   0  0  0  0  0  0  0  0  0  0  0  0
   -4.2507   -0.9929    0.0786 O   0  0  0  0  0  0  0  0  0  0  0  0
   -5.4325   -0.4452    0.5223 C   0  0  0  0  0  0  0  0  0  0  0  0
   -5.7870    0.8815    0.2650 C   0  0  0  0  0  0  0  0  0  0  0  0
   -7.0152    1.3684    0.7145 C   0  0  0  0  0  0  0  0  0  0  0  0
   -7.8909    0.5266    1.4019 C   0  0  0  0  0  0  0  0  0  0  0  0
   -7.5447   -0.8046    1.6345 C   0  0  0  0  0  0  0  0  0  0  0  0
   -6.3175   -1.2940    1.1872 C   0  0  0  0  0  0  0  0  0  0  0  0
   -2.1138   -0.2951   -0.6398 C   0  0  0  0  0  0  0  0  0  0  0  0
  1  2  1  0
  2  3  1  0
  2  4  1  0
  4  5  1  1
  5  6  2  3
  6  7  1  0
  6  8  1  0
  4  9  1  0
  9 10  1  6
 10 11  2  0
 10 12  1  0
 12 13  1  0
 13 14  1  0
 14 15  2  0
 15 16  1  0
 16 17  2  0
 17 18  1  0
 18 19  1  0
 19 20  1  0
 20 21  2  0
 21 22  1  0
 22 23  2  0
 23 24  1  0
 24 25  2  0
 18 26  2  0
  9  2  1  0
 26 14  1  0
 25 20  1  0
M  END
