
     RDKit          3D

  8  7  0  0  0  0  0  0  0  0999 V2000
    3.2770   -0.2630    0.6058 C   0  0  0  0  0  0  0  0  0  0  0  0
    2.0846   -0.2977   -0.3377 C   0  0  0  0  0  0  0  0  0  0  0  0
    0.7645   -0.1399    0.4232 C   0  0  0  0  0  0  0  0  0  0  0  0
   -0.4562   -0.2149   -0.5089 C   0  0  1  0  0  0  0  0  0  0  0  0
   -1.7877   -0.0917    0.2655 C   0  0  1  0  0  0  0  0  0  0  0  0
   -2.9942   -0.2218   -0.6596 C   0  0  0  0  0  0  0  0  0  0  0  0
   -1.8690   -1.0980    1.2736 O   0  0  0  0  0  0  0  0  0  0  0  0
   -0.3701    0.8149   -1.4981 O   0  0  0  0  0  0  0  0  0  0  0  0
  1  2  1  0
  2  3  1  0
  3  4  1  0
  4  5  1  0
  5  6  1  6
  5  7  1  0
  4  8  1  6
M  END
