
     RDKit          3D

 13 12  0  0  0  0  0  0  0  0999 V2000
    3.0107    1.2304   -0.7144 C   0  0  0  0  0  0  0  0  0  0  0  0
    2.5258    0.6402   -1.8168 C   0  0  0  0  0  0  0  0  0  0  0  0
    1.4992   -0.4451   -1.8660 C   0  0  0  0  0  0  0  0  0  0  0  0
    0.7733   -0.8843   -0.5843 C   0  0  1  0  0  0  0  0  0  0  0  0
   -0.6335   -1.3363   -0.9225 C   0  0  0  0  0  0  0  0  0  0  0  0
   -1.8168   -0.9224   -0.4203 C   0  0  0  0  0  0  0  0  0  0  0  0
   -3.0896   -1.5296   -0.9663 C   0  0  0  0  0  0  0  0  0  0  0  0
   -1.9380    0.0769    0.6359 C   0  0  0  0  0  0  0  0  0  0  0  0
   -3.0849    0.5612    1.1409 C   0  0  0  0  0  0  0  0  0  0  0  0
   -3.1450    1.5851    2.2292 C   0  0  0  0  0  0  0  0  0  0  0  0
    1.5506   -2.0244    0.0685 C   0  0  0  0  0  0  0  0  0  0  0  0
    1.2983   -0.9770   -2.9609 O   0  0  0  0  0  0  0  0  0  0  0  0
    4.0460    2.3094   -0.7531 C   0  0  0  0  0  0  0  0  0  0  0  0
  1  2  2  0
  2  3  1  0
  3  4  1  0
  4  5  1  0
  5  6  2  0
  6  7  1  0
  6  8  1  0
  8  9  2  0
  9 10  1  0
  4 11  1  6
  3 12  2  0
  1 13  1  0
M  END
