
     RDKit          3D

 10 11  0  0  0  0  0  0  0  0999 V2000
   -2.1211   -0.1087   -0.8055 C   0  0  0  0  0  0  0  0  0  0  0  0
   -0.8794   -0.0758    0.1045 C   0  0  0  0  0  0  0  0  0  0  0  0
    0.1195   -1.2208   -0.2721 C   0  0  2  0  0  0  0  0  0  0  0  0
    1.2909   -1.3272    0.7307 C   0  0  0  0  0  0  0  0  0  0  0  0
    2.0854   -0.0331    0.4747 C   0  0  0  0  0  0  0  0  0  0  0  0
    1.3357    0.6019   -0.7083 C   0  0  1  0  0  0  0  0  0  0  0  0
    0.8643   -0.6290   -1.4795 C   0  0  0  0  0  0  0  0  0  0  0  0
    0.0099    1.1304   -0.1891 C   0  0  0  0  0  0  0  0  0  0  0  0
   -0.3078    2.4243   -0.0592 C   0  0  0  0  0  0  0  0  0  0  0  0
   -1.3436   -0.1275    1.5666 C   0  0  0  0  0  0  0  0  0  0  0  0
  1  2  1  0
  2  3  1  0
  3  4  1  1
  4  5  1  0
  6  5  1  1
  6  7  1  0
  6  8  1  0
  8  9  2  0
  2 10  1  0
  8  2  1  0
  7  3  1  0
M  END
