
     RDKit          3D

 25 27  0  0  0  0  0  0  0  0999 V2000
   -3.7167    2.1339   -0.6797 C   0  0  0  0  0  0  0  0  0  0  0  0
   -3.4442    0.7164   -0.1105 C   0  0  0  0  0  0  0  0  0  0  0  0
   -2.9875    0.9014    1.3473 C   0  0  0  0  0  0  0  0  0  0  0  0
   -4.7891   -0.0330   -0.1301 C   0  0  0  0  0  0  0  0  0  0  0  0
   -2.3424    0.0193   -0.9874 C   0  0  2  0  0  0  0  0  0  0  0  0
   -2.8087   -0.1998   -2.3286 O   0  0  0  0  0  0  0  0  0  0  0  0
   -1.6362   -1.2783   -0.4695 C   0  0  1  0  0  0  0  0  0  0  0  0
   -0.7688   -0.9785    0.6392 O   0  0  0  0  0  0  0  0  0  0  0  0
    0.5099   -0.5655    0.3965 C   0  0  0  0  0  0  0  0  0  0  0  0
    1.0903   -0.3350   -0.8484 C   0  0  0  0  0  0  0  0  0  0  0  0
    2.4210    0.0973   -0.9357 C   0  0  0  0  0  0  0  0  0  0  0  0
    3.1984    0.3110    0.2131 C   0  0  0  0  0  0  0  0  0  0  0  0
    4.5949    0.7654    0.1132 C   0  0  0  0  0  0  0  0  0  0  0  0
    5.5262    0.0744   -0.6801 C   0  0  0  0  0  0  0  0  0  0  0  0
    6.8524    0.5050   -0.7755 C   0  0  0  0  0  0  0  0  0  0  0  0
    7.2700    1.6361   -0.0791 C   0  0  0  0  0  0  0  0  0  0  0  0
    6.3635    2.3360    0.7128 C   0  0  0  0  0  0  0  0  0  0  0  0
    5.0379    1.9034    0.8081 C   0  0  0  0  0  0  0  0  0  0  0  0
    2.5990    0.0775    1.4583 C   0  0  0  0  0  0  0  0  0  0  0  0
    1.2720   -0.3550    1.5470 C   0  0  0  0  0  0  0  0  0  0  0  0
   -2.5364   -2.3559   -0.0569 N   0  0  0  0  0  0  0  0  0  0  0  0
   -2.7245   -2.8677    1.1952 C   0  0  0  0  0  0  0  0  0  0  0  0
   -3.5574   -3.8816    1.1446 N   0  0  0  0  0  0  0  0  0  0  0  0
   -3.8273   -3.9871   -0.1878 C   0  0  0  0  0  0  0  0  0  0  0  0
   -3.2147   -3.0936   -0.9666 N   0  0  0  0  0  0  0  0  0  0  0  0
  1  2  1  0
  2  3  1  0
  2  4  1  0
  2  5  1  0
  5  6  1  6
  5  7  1  0
  7  8  1  1
  8  9  1  0
  9 10  2  0
 10 11  1  0
 11 12  2  0
 12 13  1  0
 13 14  2  0
 14 15  1  0
 15 16  2  0
 16 17  1  0
 17 18  2  0
 12 19  1  0
 19 20  2  0
  7 21  1  0
 21 22  1  0
 22 23  2  0
 23 24  1  0
 24 25  2  0
 20  9  1  0
 25 21  1  0
 18 13  1  0
M  END
