
     RDKit          3D

  9  8  0  0  0  0  0  0  0  0999 V2000
   -2.3372    1.6143    0.5552 C   0  0  0  0  0  0  0  0  0  0  0  0
   -2.1863    0.1090    0.3867 C   0  0  0  0  0  0  0  0  0  0  0  0
   -0.7221   -0.3597    0.3136 C   0  0  1  0  0  0  0  0  0  0  0  0
   -0.6701   -1.8924    0.3400 C   0  0  0  0  0  0  0  0  0  0  0  0
   -0.0007    0.1842   -0.9310 C   0  0  0  0  0  0  0  0  0  0  0  0
    1.3613   -0.2746   -0.9845 O   0  0  0  0  0  0  0  0  0  0  0  0
    2.2608    0.4607   -0.2755 C   0  0  0  0  0  0  0  0  0  0  0  0
    2.0060    1.4554    0.3880 O   0  0  0  0  0  0  0  0  0  0  0  0
    3.6291   -0.1319   -0.4195 C   0  0  0  0  0  0  0  0  0  0  0  0
  1  2  1  0
  2  3  1  0
  3  4  1  6
  3  5  1  0
  5  6  1  0
  6  7  1  0
  7  8  2  0
  7  9  1  0
M  END
