
     RDKit          3D

 12 13  0  0  0  0  0  0  0  0999 V2000
   -1.7439   -1.7042   -0.3427 C   0  0  0  0  0  0  0  0  0  0  0  0
   -1.3548   -0.3135   -0.5407 N   0  0  0  0  0  0  0  0  0  0  0  0
   -2.4981    0.5947   -0.4567 C   0  0  0  0  0  0  0  0  0  0  0  0
   -1.8187    1.9468   -0.3663 C   0  0  0  0  0  0  0  0  0  0  0  0
   -0.5867    1.6876    0.4916 C   0  0  0  0  0  0  0  0  0  0  0  0
   -0.3874    0.1627    0.4658 C   0  0  2  0  0  0  0  0  0  0  0  0
    1.0396   -0.2166    0.1602 C   0  0  0  0  0  0  0  0  0  0  0  0
    1.5663   -0.1352   -1.1272 C   0  0  0  0  0  0  0  0  0  0  0  0
    2.8470   -0.4351   -1.4507 N   0  0  0  0  0  0  0  0  0  0  0  0
    3.6461   -0.8405   -0.4428 C   0  0  0  0  0  0  0  0  0  0  0  0
    3.2277   -0.9553    0.8719 C   0  0  0  0  0  0  0  0  0  0  0  0
    1.9069   -0.6353    1.1750 C   0  0  0  0  0  0  0  0  0  0  0  0
  1  2  1  0
  2  3  1  0
  3  4  1  0
  4  5  1  0
  5  6  1  0
  6  7  1  6
  7  8  2  0
  8  9  1  0
  9 10  2  0
 10 11  1  0
 11 12  2  0
  6  2  1  0
 12  7  1  0
M  END
