
     RDKit          3D

 26 27  0  0  0  0  0  0  0  0999 V2000
    4.8708    1.3979   -1.5734 N   0  0  0  0  0  0  0  0  0  0  0  0
    3.8342    1.1697   -1.1025 C   0  0  0  0  0  0  0  0  0  0  0  0
    2.5729    0.9533   -0.4581 C   0  0  0  0  0  0  0  0  0  0  0  0
    1.7820   -0.0428   -0.8695 N   0  0  0  0  0  0  0  0  0  0  0  0
    0.7032    0.0072   -0.0391 N   0  0  0  0  0  0  0  0  0  0  0  0
   -0.3428   -0.9307   -0.1915 C   0  0  0  0  0  0  0  0  0  0  0  0
   -0.7501   -1.7375    0.8816 C   0  0  0  0  0  0  0  0  0  0  0  0
    0.0287   -1.7444    2.4270 Cl  0  0  0  0  0  0  0  0  0  0  0  0
   -1.7796   -2.6724    0.7070 C   0  0  0  0  0  0  0  0  0  0  0  0
   -2.4151   -2.8228   -0.5329 C   0  0  0  0  0  0  0  0  0  0  0  0
   -3.5044   -3.8513   -0.7196 C   0  0  0  0  0  0  0  0  0  0  0  0
   -3.0068   -5.0675   -1.0675 F   0  0  0  0  0  0  0  0  0  0  0  0
   -4.3947   -3.5124   -1.6909 F   0  0  0  0  0  0  0  0  0  0  0  0
   -4.2389   -4.0508    0.4086 F   0  0  0  0  0  0  0  0  0  0  0  0
   -1.9890   -2.0286   -1.6053 C   0  0  0  0  0  0  0  0  0  0  0  0
   -0.9632   -1.0878   -1.4423 C   0  0  0  0  0  0  0  0  0  0  0  0
   -0.6176   -0.0920   -2.8165 Cl  0  0  0  0  0  0  0  0  0  0  0  0
    0.8095    1.0527    0.8831 C   0  0  0  0  0  0  0  0  0  0  0  0
   -0.1419    1.3920    1.7940 N   0  0  0  0  0  0  0  0  0  0  0  0
    2.0100    1.6659    0.6075 C   0  0  0  0  0  0  0  0  0  0  0  0
    2.7120    3.0813    1.4405 S   0  0  0  0  0  4  0  0  0  0  0  0
    1.9828    3.2097    2.7521 O   0  0  0  0  0  0  0  0  0  0  0  0
    2.1213    4.3418    0.2733 C   0  0  0  0  0  0  0  0  0  0  0  0
    2.6176    4.1242   -0.9726 F   0  0  0  0  0  0  0  0  0  0  0  0
    2.5180    5.5871    0.6386 F   0  0  0  0  0  0  0  0  0  0  0  0
    0.7703    4.3680    0.1606 F   0  0  0  0  0  0  0  0  0  0  0  0
  1  2  3  0
  2  3  1  0
  3  4  2  0
  4  5  1  0
  5  6  1  0
  6  7  2  0
  7  8  1  0
  7  9  1  0
  9 10  2  0
 10 11  1  0
 11 12  1  0
 11 13  1  0
 11 14  1  0
 10 15  1  0
 15 16  2  0
 16 17  1  0
  5 18  1  0
 18 19  1  0
 18 20  2  0
 20 21  1  0
 21 22  2  0
 21 23  1  1
 23 24  1  0
 23 25  1  0
 23 26  1  0
 20  3  1  0
 16  6  1  0
M  END
