
     RDKit          3D

 26 28  0  0  0  0  0  0  0  0999 V2000
   -5.1387   -1.2122    0.5018 C   0  0  0  0  0  0  0  0  0  0  0  0
   -4.3537   -0.4306   -0.5339 C   0  0  0  0  0  0  0  0  0  0  0  0
   -5.1564   -0.2139   -1.8002 C   0  0  0  0  0  0  0  0  0  0  0  0
   -2.8534   -0.6661   -0.6959 C   0  0  0  0  0  0  0  0  0  0  0  0
   -2.1307   -1.7003    0.0825 C   0  0  0  0  0  0  0  0  0  0  0  0
   -2.5125   -2.8589    0.1498 O   0  0  0  0  0  0  0  0  0  0  0  0
   -0.9969   -1.2049    0.6339 O   0  0  0  0  0  0  0  0  0  0  0  0
   -0.2741   -2.1424    1.4571 C   0  0  2  0  0  0  0  0  0  0  0  0
   -0.8032   -2.1268    2.8401 C   0  0  0  0  0  0  0  0  0  0  0  0
   -1.2271   -2.0853    3.9214 N   0  0  0  0  0  0  0  0  0  0  0  0
    1.1998   -1.7593    1.4258 C   0  0  0  0  0  0  0  0  0  0  0  0
    2.1862   -2.7609    1.4717 C   0  0  0  0  0  0  0  0  0  0  0  0
    3.5419   -2.4257    1.4622 C   0  0  0  0  0  0  0  0  0  0  0  0
    3.9340   -1.0892    1.4016 C   0  0  0  0  0  0  0  0  0  0  0  0
    2.9658   -0.0878    1.3439 C   0  0  0  0  0  0  0  0  0  0  0  0
    3.2893    1.2485    1.3208 O   0  0  0  0  0  0  0  0  0  0  0  0
    4.2034    1.6646    0.3753 C   0  0  0  0  0  0  0  0  0  0  0  0
    4.1852    1.2326   -0.9547 C   0  0  0  0  0  0  0  0  0  0  0  0
    5.1299    1.7266   -1.8591 C   0  0  0  0  0  0  0  0  0  0  0  0
    6.0772    2.6617   -1.4400 C   0  0  0  0  0  0  0  0  0  0  0  0
    6.0793    3.1092   -0.1173 C   0  0  0  0  0  0  0  0  0  0  0  0
    5.1367    2.6165    0.7888 C   0  0  0  0  0  0  0  0  0  0  0  0
    1.6091   -0.4140    1.3825 C   0  0  0  0  0  0  0  0  0  0  0  0
   -3.3475    0.6404   -0.0749 C   0  0  0  0  0  0  0  0  0  0  0  0
   -3.1668    0.9021    1.4075 C   0  0  0  0  0  0  0  0  0  0  0  0
   -3.1871    1.9062   -0.8931 C   0  0  0  0  0  0  0  0  0  0  0  0
  1  2  1  0
  2  3  1  0
  2  4  1  0
  4  5  1  0
  5  6  2  0
  5  7  1  0
  7  8  1  0
  8  9  1  1
  9 10  3  0
  8 11  1  0
 11 12  2  0
 12 13  1  0
 13 14  2  0
 14 15  1  0
 15 16  1  0
 16 17  1  0
 17 18  2  0
 18 19  1  0
 19 20  2  0
 20 21  1  0
 21 22  2  0
 15 23  2  0
  4 24  1  0
 24 25  1  0
 24 26  1  0
 24  2  1  0
 23 11  1  0
 22 17  1  0
M  END
