
     RDKit          3D

 18 19  0  0  0  0  0  0  0  0999 V2000
    3.7588    1.1887   -0.4471 C   0  0  0  0  0  0  0  0  0  0  0  0
    3.1194    0.0188   -0.5935 C   0  0  0  0  0  0  0  0  0  0  0  0
    2.1217   -0.5893    0.3648 C   0  0  1  0  0  0  0  0  0  0  0  0
    2.5946   -1.9334    0.9057 C   0  0  0  0  0  0  0  0  0  0  0  0
    1.8559    0.2778    1.4584 O   0  0  0  0  0  0  0  0  0  0  0  0
    0.5465    0.6604    1.4196 C   0  0  0  0  0  0  0  0  0  0  0  0
    0.1159    1.4442    2.2522 O   0  0  0  0  0  0  0  0  0  0  0  0
   -0.1133    0.0723    0.3768 N   0  0  0  0  0  0  0  0  0  0  0  0
   -1.4986    0.2492    0.0549 C   0  0  0  0  0  0  0  0  0  0  0  0
   -2.0400   -0.2261   -1.1531 C   0  0  0  0  0  0  0  0  0  0  0  0
   -3.3939   -0.0513   -1.4666 C   0  0  0  0  0  0  0  0  0  0  0  0
   -4.0053   -0.6459   -2.9627 Cl  0  0  0  0  0  0  0  0  0  0  0  0
   -4.2496    0.5988   -0.5906 C   0  0  0  0  0  0  0  0  0  0  0  0
   -3.7367    1.0758    0.6061 C   0  0  0  0  0  0  0  0  0  0  0  0
   -4.7814    1.8811    1.7132 Cl  0  0  0  0  0  0  0  0  0  0  0  0
   -2.3837    0.9072    0.9276 C   0  0  0  0  0  0  0  0  0  0  0  0
    0.7690   -0.7244   -0.3068 C   0  0  0  0  0  0  0  0  0  0  0  0
    0.5675   -1.4551   -1.2694 O   0  0  0  0  0  0  0  0  0  0  0  0
  1  2  2  0
  2  3  1  0
  3  4  1  1
  3  5  1  0
  5  6  1  0
  6  7  2  0
  6  8  1  0
  8  9  1  0
  9 10  2  0
 10 11  1  0
 11 12  1  0
 11 13  2  0
 13 14  1  0
 14 15  1  0
 14 16  2  0
  8 17  1  0
 17 18  2  0
 17  3  1  0
 16  9  1  0
M  END
