
     RDKit          3D

 20 21  0  0  0  0  0  0  0  0999 V2000
   -0.7848    1.8529    1.8292 C   0  0  0  0  0  0  0  0  0  0  0  0
   -1.7885    0.7694    2.1913 C   0  0  0  0  0  0  0  0  0  0  0  0
   -2.3374    0.0767    1.0226 N   0  0  0  0  0  0  0  0  0  0  0  0
   -3.5304    0.6504    0.3941 C   0  0  0  0  0  0  0  0  0  0  0  0
   -3.2119    1.5894   -0.7604 C   0  0  0  0  0  0  0  0  0  0  0  0
   -1.7122   -0.9861    0.3600 C   0  0  0  0  0  0  0  0  0  0  0  0
   -2.1872   -1.4494   -0.6824 O   0  0  0  0  0  0  0  0  0  0  0  0
   -0.4356   -1.5971    0.9803 C   0  0  1  0  0  0  0  0  0  0  0  0
   -0.8489   -2.7277    1.9178 C   0  0  0  0  0  0  0  0  0  0  0  0
    0.4045   -2.1635   -0.0407 O   0  0  0  0  0  0  0  0  0  0  0  0
    1.5870   -1.4693   -0.1439 C   0  0  0  0  0  0  0  0  0  0  0  0
    2.6178   -1.8031    0.7387 C   0  0  0  0  0  0  0  0  0  0  0  0
    3.8229   -1.1120    0.6849 C   0  0  0  0  0  0  0  0  0  0  0  0
    4.0002   -0.0972   -0.2563 C   0  0  0  0  0  0  0  0  0  0  0  0
    2.9836    0.2284   -1.1707 C   0  0  0  0  0  0  0  0  0  0  0  0
    3.1733    1.2403   -2.1267 C   0  0  0  0  0  0  0  0  0  0  0  0
    2.1723    1.5547   -3.0461 C   0  0  0  0  0  0  0  0  0  0  0  0
    0.9705    0.8570   -3.0268 C   0  0  0  0  0  0  0  0  0  0  0  0
    0.7662   -0.1504   -2.0830 C   0  0  0  0  0  0  0  0  0  0  0  0
    1.7564   -0.4757   -1.1326 C   0  0  0  0  0  0  0  0  0  0  0  0
  1  2  1  0
  2  3  1  0
  3  4  1  0
  4  5  1  0
  3  6  1  0
  6  7  2  0
  6  8  1  0
  8  9  1  1
  8 10  1  0
 10 11  1  0
 11 12  2  0
 12 13  1  0
 13 14  2  0
 14 15  1  0
 15 16  2  0
 16 17  1  0
 17 18  2  0
 18 19  1  0
 19 20  2  0
 20 11  1  0
 20 15  1  0
M  END
