
     RDKit          3D

 10 10  0  0  0  0  0  0  0  0999 V2000
    2.0274    1.2345   -0.7151 C   0  0  0  0  0  0  0  0  0  0  0  0
    1.8938   -0.1011    0.0255 C   0  0  0  0  0  0  0  0  0  0  0  0
    2.7138   -1.1732   -0.7039 C   0  0  0  0  0  0  0  0  0  0  0  0
    0.4231   -0.5585    0.2496 C   0  0  1  0  0  0  0  0  0  0  0  0
   -0.2728    0.3201    1.3138 C   0  0  0  0  0  0  0  0  0  0  0  0
   -1.7637   -0.0032    1.4150 C   0  0  0  0  0  0  0  0  0  0  0  0
   -2.4462    0.1490    0.0768 C   0  0  0  0  0  0  0  0  0  0  0  0
   -3.6826    0.6550   -0.0411 C   0  0  0  0  0  0  0  0  0  0  0  0
   -1.6975   -0.2890   -1.0842 C   0  0  0  0  0  0  0  0  0  0  0  0
   -0.4035   -0.6375   -1.0166 C   0  0  0  0  0  0  0  0  0  0  0  0
  1  2  1  0
  2  3  1  0
  4  2  1  6
  4  5  1  0
  5  6  1  0
  6  7  1  0
  7  8  2  0
  7  9  1  0
  9 10  2  0
 10  4  1  0
M  END
