
     RDKit          3D

 10 10  0  0  0  0  0  0  0  0999 V2000
    3.6120    0.4782   -0.1632 C   0  0  0  0  0  0  0  0  0  0  0  0
    2.1200    0.3388   -0.0709 C   0  0  0  0  0  0  0  0  0  0  0  0
    1.3278    1.3646    0.2887 C   0  0  0  0  0  0  0  0  0  0  0  0
   -0.1659    1.2564    0.4299 C   0  0  0  0  0  0  0  0  0  0  0  0
   -0.6672   -0.2020    0.4652 C   0  0  2  0  0  0  0  0  0  0  0  0
    0.0442   -1.0312   -0.6149 C   0  0  0  0  0  0  0  0  0  0  0  0
    1.5622   -1.0240   -0.4037 C   0  0  0  0  0  0  0  0  0  0  0  0
   -2.1865   -0.2974    0.3767 C   0  0  0  0  0  0  0  0  0  0  0  0
   -2.9143   -0.7140    1.4277 C   0  0  0  0  0  0  0  0  0  0  0  0
   -2.8572    0.0776   -0.9181 C   0  0  0  0  0  0  0  0  0  0  0  0
  1  2  1  0
  2  3  2  0
  3  4  1  0
  4  5  1  0
  5  6  1  0
  6  7  1  0
  5  8  1  6
  8  9  2  0
  8 10  1  0
  7  2  1  0
M  END
