
     RDKit          3D

 15 16  0  0  0  0  0  0  0  0999 V2000
    2.4848    2.4074    1.3328 C   0  0  0  0  0  0  0  0  0  0  0  0
    2.7848    1.3790    0.4121 O   0  0  0  0  0  0  0  0  0  0  0  0
    1.8229    0.0812    0.4500 P   0  0  0  0  0  5  0  0  0  0  0  0
    1.6575   -0.5046    1.8186 O   0  0  0  0  0  0  0  0  0  0  0  0
    2.5019   -0.8818   -0.6504 O   0  0  0  0  0  0  0  0  0  0  0  0
    3.6577   -1.5820   -0.2417 C   0  0  0  0  0  0  0  0  0  0  0  0
    0.4769    0.6155   -0.2656 O   0  0  0  0  0  0  0  0  0  0  0  0
   -0.5492   -0.0891   -0.5603 C   0  0  0  0  0  0  0  0  0  0  0  0
   -0.9413   -1.3842   -0.4911 C   0  0  0  0  0  0  0  0  0  0  0  0
   -0.1658   -2.8737    0.0840 Cl  0  0  0  0  0  0  0  0  0  0  0  0
   -2.3054   -1.1283   -1.0989 C   0  0  1  0  0  0  0  0  0  0  0  0
   -3.4424   -1.1689   -0.1517 C   0  0  0  0  0  0  0  0  0  0  0  0
   -3.7497    0.0666    0.2616 C   0  0  0  0  0  0  0  0  0  0  0  0
   -2.8648    1.1274   -0.3268 C   0  0  0  0  0  0  0  0  0  0  0  0
   -1.8709    0.3497   -1.2038 C   0  0  1  0  0  0  0  0  0  0  0  0
  1  2  1  0
  2  3  1  0
  3  4  2  0
  3  5  1  0
  5  6  1  0
  3  7  1  0
  7  8  1  0
  8  9  2  0
  9 10  1  0
  9 11  1  0
 11 12  1  1
 12 13  2  0
 13 14  1  0
 15 14  1  1
 15  8  1  0
 15 11  1  0
M  END
