
     RDKit          3D

 26 28  0  0  0  0  0  0  0  0999 V2000
   -4.9865   -1.8280   -0.7426 C   0  0  0  0  0  0  0  0  0  0  0  0
   -4.6784   -0.6598    0.1645 C   0  0  0  0  0  0  0  0  0  0  0  0
   -4.7663   -1.0111    1.6312 C   0  0  0  0  0  0  0  0  0  0  0  0
   -5.0524    0.7616   -0.2300 C   0  0  2  0  0  0  0  0  0  0  0  0
   -5.8036    1.0241   -1.4682 C   0  0  0  0  0  0  0  0  0  0  0  0
   -5.6108    2.0166   -2.3507 C   0  0  0  0  0  0  0  0  0  0  0  0
   -4.3631    3.1927   -2.1569 Cl  0  0  0  0  0  0  0  0  0  0  0  0
   -6.6270    2.1534   -3.7417 Cl  0  0  0  0  0  0  0  0  0  0  0  0
   -3.6073    0.3108   -0.3140 C   0  0  1  0  0  0  0  0  0  0  0  0
   -2.5920    0.8608    0.6174 C   0  0  0  0  0  0  0  0  0  0  0  0
   -2.8470    1.7161    1.4523 O   0  0  0  0  0  0  0  0  0  0  0  0
   -1.3866    0.2724    0.4204 O   0  0  0  0  0  0  0  0  0  0  0  0
   -0.3686    0.7572    1.2964 C   0  0  0  0  0  0  0  0  0  0  0  0
    0.9024    0.0124    0.9825 C   0  0  0  0  0  0  0  0  0  0  0  0
    1.2314   -1.1624    1.6743 C   0  0  0  0  0  0  0  0  0  0  0  0
    2.3943   -1.8690    1.3602 C   0  0  0  0  0  0  0  0  0  0  0  0
    3.2402   -1.4102    0.3510 C   0  0  0  0  0  0  0  0  0  0  0  0
    2.9255   -0.2361   -0.3358 C   0  0  0  0  0  0  0  0  0  0  0  0
    3.6928    0.2483   -1.3711 O   0  0  0  0  0  0  0  0  0  0  0  0
    5.0526    0.3212   -1.1699 C   0  0  0  0  0  0  0  0  0  0  0  0
    5.8709   -0.1331   -2.2045 C   0  0  0  0  0  0  0  0  0  0  0  0
    7.2583   -0.0559   -2.0789 C   0  0  0  0  0  0  0  0  0  0  0  0
    7.8245    0.4894   -0.9261 C   0  0  0  0  0  0  0  0  0  0  0  0
    7.0051    0.9649    0.0986 C   0  0  0  0  0  0  0  0  0  0  0  0
    5.6170    0.8890   -0.0247 C   0  0  0  0  0  0  0  0  0  0  0  0
    1.7524    0.4599   -0.0391 C   0  0  0  0  0  0  0  0  0  0  0  0
  1  2  1  0
  2  3  1  0
  2  4  1  0
  4  5  1  6
  5  6  2  3
  6  7  1  0
  6  8  1  0
  4  9  1  0
  9 10  1  1
 10 11  2  0
 10 12  1  0
 12 13  1  0
 13 14  1  0
 14 15  2  0
 15 16  1  0
 16 17  2  0
 17 18  1  0
 18 19  1  0
 19 20  1  0
 20 21  2  0
 21 22  1  0
 22 23  2  0
 23 24  1  0
 24 25  2  0
 18 26  2  0
  9  2  1  0
 26 14  1  0
 25 20  1  0
M  END
