
     RDKit          3D

 26 27  0  0  0  0  0  0  0  0999 V2000
    3.6225   -3.5972   -1.8339 N   0  0  0  0  0  0  0  0  0  0  0  0
    2.9935   -2.7860   -1.2890 C   0  0  0  0  0  0  0  0  0  0  0  0
    2.1839   -1.7939   -0.6379 C   0  0  0  0  0  0  0  0  0  0  0  0
    0.9047   -1.6750   -1.0131 N   0  0  0  0  0  0  0  0  0  0  0  0
    0.4015   -0.6895   -0.2319 N   0  0  0  0  0  0  0  0  0  0  0  0
   -0.9391   -0.2780   -0.4107 C   0  0  0  0  0  0  0  0  0  0  0  0
   -1.9748   -1.2247   -0.3452 C   0  0  0  0  0  0  0  0  0  0  0  0
   -1.7315   -2.8800    0.1003 Cl  0  0  0  0  0  0  0  0  0  0  0  0
   -3.3030   -0.8288   -0.5515 C   0  0  0  0  0  0  0  0  0  0  0  0
   -3.6220    0.5081   -0.8229 C   0  0  0  0  0  0  0  0  0  0  0  0
   -5.0521    0.9262   -1.0685 C   0  0  0  0  0  0  0  0  0  0  0  0
   -5.3047    2.1980   -0.6549 F   0  0  0  0  0  0  0  0  0  0  0  0
   -5.3804    0.8839   -2.3866 F   0  0  0  0  0  0  0  0  0  0  0  0
   -5.9544    0.1375   -0.4248 F   0  0  0  0  0  0  0  0  0  0  0  0
   -2.5813    1.4436   -0.9031 C   0  0  0  0  0  0  0  0  0  0  0  0
   -1.2487    1.0592   -0.7021 C   0  0  0  0  0  0  0  0  0  0  0  0
   -0.0561    2.2898   -0.9431 Cl  0  0  0  0  0  0  0  0  0  0  0  0
    1.3550   -0.1954    0.6679 C   0  0  0  0  0  0  0  0  0  0  0  0
    1.0828    0.7311    1.6270 N   0  0  0  0  0  0  0  0  0  0  0  0
    2.5127   -0.8919    0.3877 C   0  0  0  0  0  0  0  0  0  0  0  0
    4.0805   -0.7450    1.2284 S   0  0  0  0  0  4  0  0  0  0  0  0
    5.0594   -1.5915    0.4676 O   0  0  0  0  0  0  0  0  0  0  0  0
    4.3876    1.0104    0.9064 C   0  0  0  0  0  0  0  0  0  0  0  0
    4.1756    1.3571   -0.3880 F   0  0  0  0  0  0  0  0  0  0  0  0
    5.6610    1.3666    1.2137 F   0  0  0  0  0  0  0  0  0  0  0  0
    3.5798    1.8014    1.6673 F   0  0  0  0  0  0  0  0  0  0  0  0
  1  2  3  0
  2  3  1  0
  3  4  2  0
  4  5  1  0
  5  6  1  0
  6  7  2  0
  7  8  1  0
  7  9  1  0
  9 10  2  0
 10 11  1  0
 11 12  1  0
 11 13  1  0
 11 14  1  0
 10 15  1  0
 15 16  2  0
 16 17  1  0
  5 18  1  0
 18 19  1  0
 18 20  2  0
 20 21  1  0
 21 22  2  0
 21 23  1  1
 23 24  1  0
 23 25  1  0
 23 26  1  0
 20  3  1  0
 16  6  1  0
M  END
