
     RDKit          3D

 24 26  0  0  0  0  0  0  0  0999 V2000
   -4.7494    0.0599    1.1965 C   0  0  0  0  0  0  0  0  0  0  0  0
   -3.2915   -0.3058    1.2179 C   0  0  0  0  0  0  0  0  0  0  0  0
   -2.8723   -1.1699    2.3766 C   0  0  0  0  0  0  0  0  0  0  0  0
   -2.4022    0.0908    0.2857 C   0  0  0  0  0  0  0  0  0  0  0  0
   -2.6660    0.9328   -0.8904 C   0  0  1  0  0  0  0  0  0  0  0  0
   -1.8963    0.7850   -2.1878 C   0  0  1  0  0  0  0  0  0  0  0  0
   -0.7905   -0.1809   -2.3719 C   0  0  0  0  0  0  0  0  0  0  0  0
   -0.8179   -1.0639   -3.2163 O   0  0  0  0  0  0  0  0  0  0  0  0
    0.2467    0.0880   -1.5414 O   0  0  0  0  0  0  0  0  0  0  0  0
    1.3001   -0.8638   -1.6569 C   0  0  0  0  0  0  0  0  0  0  0  0
    2.2947   -0.5324   -0.6748 N   0  0  0  0  0  0  0  0  0  0  0  0
    3.3858    0.2382   -0.9142 C   0  0  0  0  0  0  0  0  0  0  0  0
    3.7545    0.7413   -1.9591 O   0  0  0  0  0  0  0  0  0  0  0  0
    4.0902    0.3645    0.3640 C   0  0  0  0  0  0  0  0  0  0  0  0
    3.4056   -0.3217    1.2820 C   0  0  0  0  0  0  0  0  0  0  0  0
    3.7765   -0.4383    2.7110 C   0  0  0  0  0  0  0  0  0  0  0  0
    4.8702    0.5823    3.0736 C   0  0  0  0  0  0  0  0  0  0  0  0
    5.9449    0.7071    1.9807 C   0  0  0  0  0  0  0  0  0  0  0  0
    5.3524    1.0982    0.6149 C   0  0  0  0  0  0  0  0  0  0  0  0
    2.2248   -0.8946    0.6320 C   0  0  0  0  0  0  0  0  0  0  0  0
    1.3743   -1.5541    1.2010 O   0  0  0  0  0  0  0  0  0  0  0  0
   -3.3530    0.3473   -2.1148 C   0  0  0  0  0  0  0  0  0  0  0  0
   -3.6926   -1.1252   -2.1740 C   0  0  0  0  0  0  0  0  0  0  0  0
   -4.3700    1.2140   -2.8168 C   0  0  0  0  0  0  0  0  0  0  0  0
  1  2  1  0
  2  3  1  0
  2  4  2  3
  5  4  1  1
  5  6  1  0
  6  7  1  1
  7  8  2  0
  7  9  1  0
  9 10  1  0
 10 11  1  0
 11 12  1  0
 12 13  2  0
 12 14  1  0
 14 15  2  0
 15 16  1  0
 16 17  1  0
 17 18  1  0
 18 19  1  0
 15 20  1  0
 20 21  2  0
  6 22  1  0
 22 23  1  0
 22 24  1  0
 22  5  1  0
 20 11  1  0
 19 14  1  0
M  END
