
     RDKit          3D

  8  8  0  0  0  0  0  0  0  0999 V2000
   -1.5728   -1.3022    0.1180 C   0  0  0  0  0  0  0  0  0  0  0  0
   -1.0976    0.0796    0.5511 C   0  0  1  0  0  0  0  0  0  0  0  0
    0.3632    0.3220    0.2754 C   0  0  0  0  0  0  0  0  0  0  0  0
    1.2568    0.8206    1.2077 C   0  0  0  0  0  0  0  0  0  0  0  0
    2.8431    0.9893    0.5936 S   0  0  0  0  0  0  0  0  0  0  0  0
    2.3674    0.4093   -0.9399 C   0  0  0  0  0  0  0  0  0  0  0  0
    1.0274    0.0934   -0.9793 C   0  0  0  0  0  0  0  0  0  0  0  0
   -1.9072    1.0632   -0.0908 O   0  0  0  0  0  0  0  0  0  0  0  0
  2  1  1  6
  2  3  1  0
  3  4  2  0
  4  5  1  0
  5  6  1  0
  6  7  2  0
  2  8  1  0
  7  3  1  0
M  END
