
     RDKit          3D

 11 10  0  0  0  0  0  0  0  0999 V2000
   -1.8373    2.1168    1.1186 C   0  0  0  0  0  0  0  0  0  0  0  0
   -1.3469    0.7766    1.6506 C   0  0  0  0  0  0  0  0  0  0  0  0
   -0.4765   -0.0417    0.6632 C   0  0  2  0  0  0  0  0  0  0  0  0
    0.8540    0.7073    0.4083 C   0  0  0  0  0  0  0  0  0  0  0  0
    2.0416   -0.2115    0.2107 C   0  0  0  0  0  0  0  0  0  0  0  0
    2.1488   -1.3403    0.6680 O   0  0  0  0  0  0  0  0  0  0  0  0
    2.9955    0.4273   -0.5252 O   0  0  0  0  0  0  0  0  0  0  0  0
    4.1683   -0.3537   -0.7569 C   0  0  0  0  0  0  0  0  0  0  0  0
   -1.2208   -0.4017   -0.6625 C   0  0  0  0  0  0  0  0  0  0  0  0
   -2.5427   -1.1359   -0.4010 C   0  0  0  0  0  0  0  0  0  0  0  0
   -0.3682   -1.2644   -1.6016 C   0  0  0  0  0  0  0  0  0  0  0  0
  1  2  1  0
  3  2  1  1
  3  4  1  0
  4  5  1  0
  5  6  2  0
  5  7  1  0
  7  8  1  0
  3  9  1  0
  9 10  1  0
  9 11  1  0
M  END
