
     RDKit          3D

 10 10  0  0  0  0  0  0  0  0999 V2000
   -3.1347   -0.7281    0.9555 C   0  0  0  0  0  0  0  0  0  0  0  0
   -1.7140   -0.8590    0.4216 C   0  0  0  0  0  0  0  0  0  0  0  0
   -0.9534    0.4709    0.4707 C   0  0  1  0  0  0  0  0  0  0  0  0
    0.4972    0.3182    0.0618 C   0  0  0  0  0  0  0  0  0  0  0  0
    0.8457    0.0033   -1.2614 C   0  0  0  0  0  0  0  0  0  0  0  0
    2.1842   -0.1353   -1.6311 C   0  0  0  0  0  0  0  0  0  0  0  0
    3.1904    0.0380   -0.6833 C   0  0  0  0  0  0  0  0  0  0  0  0
    2.8592    0.3495    0.6339 C   0  0  0  0  0  0  0  0  0  0  0  0
    1.5205    0.4887    1.0056 C   0  0  0  0  0  0  0  0  0  0  0  0
   -1.5939    1.4218   -0.3801 O   0  0  0  0  0  0  0  0  0  0  0  0
  1  2  1  0
  2  3  1  0
  3  4  1  0
  4  5  2  0
  5  6  1  0
  6  7  2  0
  7  8  1  0
  8  9  2  0
  3 10  1  6
  9  4  1  0
M  END
