
     RDKit          3D

 10 11  0  0  0  0  0  0  0  0999 V2000
   -1.6550   -0.9806   -0.7584 C   0  0  0  0  0  0  0  0  0  0  0  0
   -0.8519   -0.1176    0.2245 C   0  0  0  0  0  0  0  0  0  0  0  0
    0.3862   -0.8569    0.8338 C   0  0  1  0  0  0  0  0  0  0  0  0
    1.2672   -1.5139   -0.2531 C   0  0  0  0  0  0  0  0  0  0  0  0
    1.8732   -0.3033   -0.9870 C   0  0  0  0  0  0  0  0  0  0  0  0
    1.3515    0.8903   -0.1698 C   0  0  2  0  0  0  0  0  0  0  0  0
    1.3023    0.3082    1.2413 C   0  0  0  0  0  0  0  0  0  0  0  0
   -0.1313    1.0409   -0.4613 C   0  0  0  0  0  0  0  0  0  0  0  0
   -0.6827    2.0391   -1.1625 C   0  0  0  0  0  0  0  0  0  0  0  0
   -1.8001    0.3724    1.3344 C   0  0  0  0  0  0  0  0  0  0  0  0
  1  2  1  0
  2  3  1  0
  3  4  1  6
  4  5  1  0
  6  5  1  6
  6  7  1  0
  6  8  1  0
  8  9  2  0
  2 10  1  0
  8  2  1  0
  7  3  1  0
M  END
