
     RDKit          3D

 25 27  0  0  0  0  0  0  0  0999 V2000
   -4.5739   -0.0161    1.2159 C   0  0  0  0  0  0  0  0  0  0  0  0
   -3.9953   -0.8723    0.0776 C   0  0  0  0  0  0  0  0  0  0  0  0
   -5.1855   -1.3689   -0.7783 C   0  0  0  0  0  0  0  0  0  0  0  0
   -3.3114   -2.1097    0.6916 C   0  0  0  0  0  0  0  0  0  0  0  0
   -3.0157   -0.0668   -0.8403 C   0  0  2  0  0  0  0  0  0  0  0  0
   -2.6228   -0.9408   -1.9292 O   0  0  0  0  0  0  0  0  0  0  0  0
   -1.7195    0.4919   -0.1881 C   0  0  1  0  0  0  0  0  0  0  0  0
   -0.8624    0.9504   -1.2698 O   0  0  0  0  0  0  0  0  0  0  0  0
    0.4501    0.6282   -1.0641 C   0  0  0  0  0  0  0  0  0  0  0  0
    1.3493    1.6641   -0.8386 C   0  0  0  0  0  0  0  0  0  0  0  0
    2.7016    1.3743   -0.6413 C   0  0  0  0  0  0  0  0  0  0  0  0
    3.1744    0.0509   -0.6860 C   0  0  0  0  0  0  0  0  0  0  0  0
    4.6009   -0.2513   -0.4789 C   0  0  0  0  0  0  0  0  0  0  0  0
    5.3209   -1.0225   -1.4072 C   0  0  0  0  0  0  0  0  0  0  0  0
    6.6747   -1.3091   -1.2115 C   0  0  0  0  0  0  0  0  0  0  0  0
    7.3328   -0.8290   -0.0821 C   0  0  0  0  0  0  0  0  0  0  0  0
    6.6387   -0.0633    0.8509 C   0  0  0  0  0  0  0  0  0  0  0  0
    5.2849    0.2229    0.6534 C   0  0  0  0  0  0  0  0  0  0  0  0
    2.2467   -0.9738   -0.9449 C   0  0  0  0  0  0  0  0  0  0  0  0
    0.8926   -0.6895   -1.1416 C   0  0  0  0  0  0  0  0  0  0  0  0
   -1.9208    1.6235    0.7007 N   0  0  0  0  0  0  0  0  0  0  0  0
   -1.3074    1.8375    1.8990 C   0  0  0  0  0  0  0  0  0  0  0  0
   -1.7107    2.9806    2.4028 N   0  0  0  0  0  0  0  0  0  0  0  0
   -2.5676    3.4516    1.4500 C   0  0  0  0  0  0  0  0  0  0  0  0
   -2.7302    2.6590    0.3877 N   0  0  0  0  0  0  0  0  0  0  0  0
  1  2  1  0
  2  3  1  0
  2  4  1  0
  2  5  1  0
  5  6  1  6
  5  7  1  0
  7  8  1  6
  8  9  1  0
  9 10  2  0
 10 11  1  0
 11 12  2  0
 12 13  1  0
 13 14  2  0
 14 15  1  0
 15 16  2  0
 16 17  1  0
 17 18  2  0
 12 19  1  0
 19 20  2  0
  7 21  1  0
 21 22  1  0
 22 23  2  0
 23 24  1  0
 24 25  2  0
 20  9  1  0
 25 21  1  0
 18 13  1  0
M  END
