
     RDKit          3D

 26 27  0  0  0  0  0  0  0  0999 V2000
   -3.5878    3.9561    0.1070 N   0  0  0  0  0  0  0  0  0  0  0  0
   -2.9043    3.0194    0.1684 C   0  0  0  0  0  0  0  0  0  0  0  0
   -2.1368    1.8123    0.2510 C   0  0  0  0  0  0  0  0  0  0  0  0
   -0.8013    1.8722    0.2114 N   0  0  0  0  0  0  0  0  0  0  0  0
   -0.3987    0.5756    0.3116 N   0  0  0  0  0  0  0  0  0  0  0  0
    0.9732    0.2562    0.2260 C   0  0  0  0  0  0  0  0  0  0  0  0
    1.4411   -0.6317   -0.7543 C   0  0  0  0  0  0  0  0  0  0  0  0
    0.4392   -1.3089   -1.9917 Cl  0  0  0  0  0  0  0  0  0  0  0  0
    2.8075   -0.9320   -0.8314 C   0  0  0  0  0  0  0  0  0  0  0  0
    3.7266   -0.3419    0.0475 C   0  0  0  0  0  0  0  0  0  0  0  0
    5.1946   -0.6864   -0.0299 C   0  0  0  0  0  0  0  0  0  0  0  0
    5.6060   -0.9690   -1.2955 F   0  0  0  0  0  0  0  0  0  0  0  0
    6.0007    0.3162    0.4124 F   0  0  0  0  0  0  0  0  0  0  0  0
    5.5010   -1.7782    0.7206 F   0  0  0  0  0  0  0  0  0  0  0  0
    3.2504    0.5483    1.0195 C   0  0  0  0  0  0  0  0  0  0  0  0
    1.8861    0.8536    1.1092 C   0  0  0  0  0  0  0  0  0  0  0  0
    1.4143    1.8866    2.4157 Cl  0  0  0  0  0  0  0  0  0  0  0  0
   -1.4792   -0.2922    0.4820 C   0  0  0  0  0  0  0  0  0  0  0  0
   -1.3763   -1.6255    0.7096 N   0  0  0  0  0  0  0  0  0  0  0  0
   -2.6012    0.4992    0.4020 C   0  0  0  0  0  0  0  0  0  0  0  0
   -4.3032   -0.0259    0.5303 S   0  0  0  0  0  4  0  0  0  0  0  0
   -4.2855   -1.3889    1.1708 O   0  0  0  0  0  0  0  0  0  0  0  0
   -4.6196   -0.1770   -1.2516 C   0  0  0  0  0  0  0  0  0  0  0  0
   -4.4367    1.0134   -1.8815 F   0  0  0  0  0  0  0  0  0  0  0  0
   -3.8060   -1.0741   -1.8608 F   0  0  0  0  0  0  0  0  0  0  0  0
   -5.8976   -0.5579   -1.5028 F   0  0  0  0  0  0  0  0  0  0  0  0
  1  2  3  0
  2  3  1  0
  3  4  2  0
  4  5  1  0
  5  6  1  0
  6  7  2  0
  7  8  1  0
  7  9  1  0
  9 10  2  0
 10 11  1  0
 11 12  1  0
 11 13  1  0
 11 14  1  0
 10 15  1  0
 15 16  2  0
 16 17  1  0
  5 18  1  0
 18 19  1  0
 18 20  2  0
 20 21  1  0
 21 22  2  0
 21 23  1  6
 23 24  1  0
 23 25  1  0
 23 26  1  0
 20  3  1  0
 16  6  1  0
M  END
