
     RDKit          3D

 13 12  0  0  0  0  0  0  0  0999 V2000
    4.9994   -0.0207    1.2546 C   0  0  0  0  0  0  0  0  0  0  0  0
    3.6746    0.0908    0.5689 C   0  0  0  0  0  0  0  0  0  0  0  0
    2.9840    1.2379    0.4910 C   0  0  0  0  0  0  0  0  0  0  0  0
    1.6619    1.4365   -0.1779 C   0  0  0  0  0  0  0  0  0  0  0  0
    1.2543    2.5965   -0.2785 O   0  0  0  0  0  0  0  0  0  0  0  0
    0.8892    0.2320   -0.7409 C   0  0  2  0  0  0  0  0  0  0  0  0
    1.3017    0.0036   -2.1923 C   0  0  0  0  0  0  0  0  0  0  0  0
   -0.6022    0.4874   -0.6552 C   0  0  0  0  0  0  0  0  0  0  0  0
   -1.5660   -0.3133   -0.1510 C   0  0  0  0  0  0  0  0  0  0  0  0
   -1.3185   -1.6936    0.4021 C   0  0  0  0  0  0  0  0  0  0  0  0
   -2.9434    0.1811   -0.1495 C   0  0  0  0  0  0  0  0  0  0  0  0
   -4.0240   -0.4583    0.3270 C   0  0  0  0  0  0  0  0  0  0  0  0
   -5.4042    0.1164    0.2971 C   0  0  0  0  0  0  0  0  0  0  0  0
  1  2  1  0
  2  3  2  0
  3  4  1  0
  4  5  2  0
  4  6  1  0
  6  7  1  6
  6  8  1  0
  8  9  2  0
  9 10  1  0
  9 11  1  0
 11 12  2  0
 12 13  1  0
M  END
