
     RDKit          3D

 10 11  0  0  0  0  0  0  0  0999 V2000
    1.8959   -2.1522   -0.4821 C   0  0  0  0  0  0  0  0  0  0  0  0
    1.2992   -0.8422   -0.0923 C   0  0  0  0  0  0  0  0  0  0  0  0
    1.7030   -0.0786    0.9434 C   0  0  0  0  0  0  0  0  0  0  0  0
    1.0065    1.2295    1.2611 C   0  0  0  0  0  0  0  0  0  0  0  0
   -0.1285    1.4627    0.2408 C   0  0  1  0  0  0  0  0  0  0  0  0
    0.4086    1.2351   -1.2114 C   0  0  0  0  0  0  0  0  0  0  0  0
    0.1566   -0.2871   -0.9064 C   0  0  2  0  0  0  0  0  0  0  0  0
   -1.0773    0.2129   -0.0283 C   0  0  0  0  0  0  0  0  0  0  0  0
   -1.4909   -0.6324    1.1836 C   0  0  0  0  0  0  0  0  0  0  0  0
   -2.3569    0.5238   -0.8302 C   0  0  0  0  0  0  0  0  0  0  0  0
  1  2  1  0
  2  3  2  0
  3  4  1  0
  5  4  1  1
  5  6  1  0
  7  6  1  1
  7  8  1  0
  8  9  1  0
  8 10  1  0
  7  2  1  0
  8  5  1  0
M  END
