
     RDKit          3D

 26 27  0  0  0  0  0  0  0  0999 V2000
    4.0128   -3.4226    0.7314 N   0  0  0  0  0  0  0  0  0  0  0  0
    3.2186   -2.6105    0.4900 C   0  0  0  0  0  0  0  0  0  0  0  0
    2.3052   -1.5584    0.1546 C   0  0  0  0  0  0  0  0  0  0  0  0
    1.0072   -1.6961    0.4430 N   0  0  0  0  0  0  0  0  0  0  0  0
    0.4264   -0.5584   -0.0288 N   0  0  0  0  0  0  0  0  0  0  0  0
   -0.9640   -0.3610    0.1305 C   0  0  0  0  0  0  0  0  0  0  0  0
   -1.8662   -1.3426   -0.3125 C   0  0  0  0  0  0  0  0  0  0  0  0
   -1.3903   -2.7608   -1.1852 Cl  0  0  0  0  0  0  0  0  0  0  0  0
   -3.2450   -1.1589   -0.1410 C   0  0  0  0  0  0  0  0  0  0  0  0
   -3.7475   -0.0018    0.4680 C   0  0  0  0  0  0  0  0  0  0  0  0
   -5.2324    0.1804    0.6715 C   0  0  0  0  0  0  0  0  0  0  0  0
   -5.6481   -0.3015    1.8726 F   0  0  0  0  0  0  0  0  0  0  0  0
   -5.9799   -0.4531   -0.2723 F   0  0  0  0  0  0  0  0  0  0  0  0
   -5.6122    1.4868    0.6351 F   0  0  0  0  0  0  0  0  0  0  0  0
   -2.8404    0.9643    0.9235 C   0  0  0  0  0  0  0  0  0  0  0  0
   -1.4591    0.7905    0.7613 C   0  0  0  0  0  0  0  0  0  0  0  0
   -0.4516    1.9981    1.4839 Cl  0  0  0  0  0  0  0  0  0  0  0  0
    1.3599    0.2817   -0.6425 C   0  0  0  0  0  0  0  0  0  0  0  0
    1.0571    1.4289   -1.2991 N   0  0  0  0  0  0  0  0  0  0  0  0
    2.5765   -0.3429   -0.4876 C   0  0  0  0  0  0  0  0  0  0  0  0
    4.1724    0.2485   -1.0367 S   0  0  0  0  0  4  0  0  0  0  0  0
    3.9108    1.4197   -1.9468 O   0  0  0  0  0  0  0  0  0  0  0  0
    4.7526    0.8481    0.5774 C   0  0  0  0  0  0  0  0  0  0  0  0
    4.8347   -0.1651    1.4780 F   0  0  0  0  0  0  0  0  0  0  0  0
    3.9297    1.7840    1.1139 F   0  0  0  0  0  0  0  0  0  0  0  0
    5.9892    1.3996    0.4950 F   0  0  0  0  0  0  0  0  0  0  0  0
  1  2  3  0
  2  3  1  0
  3  4  2  0
  4  5  1  0
  5  6  1  0
  6  7  2  0
  7  8  1  0
  7  9  1  0
  9 10  2  0
 10 11  1  0
 11 12  1  0
 11 13  1  0
 11 14  1  0
 10 15  1  0
 15 16  2  0
 16 17  1  0
  5 18  1  0
 18 19  1  0
 18 20  2  0
 20 21  1  0
 21 22  2  0
 21 23  1  1
 23 24  1  0
 23 25  1  0
 23 26  1  0
 20  3  1  0
 16  6  1  0
M  END
