
     RDKit          3D

 18 18  0  0  0  0  0  0  0  0999 V2000
   -3.8720   -1.7256   -1.1165 C   0  0  0  0  0  0  0  0  0  0  0  0
   -3.2260   -2.4672    0.0463 C   0  0  0  0  0  0  0  0  0  0  0  0
   -2.2780   -1.6037    0.8758 C   0  0  0  0  0  0  0  0  0  0  0  0
   -0.7810   -1.1382   -0.0400 S   0  0  0  0  0  0  0  0  0  0  0  0
    0.1751    0.2372    1.2543 P   0  0  2  0  0  5  0  0  0  0  0  0
    0.6581   -0.3573    3.0510 S   0  0  0  0  0  0  0  0  0  0  0  0
   -0.8192    1.5242    1.3595 O   0  0  0  0  0  0  0  0  0  0  0  0
   -1.2406    2.1917    0.1813 C   0  0  0  0  0  0  0  0  0  0  0  0
   -1.4705    3.6520    0.5115 C   0  0  0  0  0  0  0  0  0  0  0  0
    1.4059    0.9200    0.4536 O   0  0  0  0  0  0  0  0  0  0  0  0
    2.4902    0.3005   -0.1035 C   0  0  0  0  0  0  0  0  0  0  0  0
    2.8311   -1.0307    0.1364 C   0  0  0  0  0  0  0  0  0  0  0  0
    3.9620   -1.5842   -0.4736 C   0  0  0  0  0  0  0  0  0  0  0  0
    4.7514   -0.8087   -1.3206 C   0  0  0  0  0  0  0  0  0  0  0  0
    6.1382   -1.5005   -2.0661 Cl  0  0  0  0  0  0  0  0  0  0  0  0
    4.4242    0.5203   -1.5669 C   0  0  0  0  0  0  0  0  0  0  0  0
    3.2958    1.0710   -0.9574 C   0  0  0  0  0  0  0  0  0  0  0  0
    2.9099    2.7226   -1.2958 Cl  0  0  0  0  0  0  0  0  0  0  0  0
  1  2  1  0
  2  3  1  0
  3  4  1  0
  4  5  1  0
  5  6  2  0
  5  7  1  1
  7  8  1  0
  8  9  1  0
  5 10  1  0
 10 11  1  0
 11 12  2  0
 12 13  1  0
 13 14  2  0
 14 15  1  0
 14 16  1  0
 16 17  2  0
 17 18  1  0
 17 11  1  0
M  END
