
     RDKit          3D

 12 12  0  0  0  0  0  0  0  0999 V2000
   -1.4672   -0.2095    0.7292 C   0  0  1  0  0  0  0  0  0  0  0  0
   -1.6571   -1.5845    1.1191 O   0  0  0  0  0  0  0  0  0  0  0  0
   -0.0368   -0.0305    0.2531 C   0  0  0  0  0  0  0  0  0  0  0  0
    0.8197    0.8711    0.9031 C   0  0  0  0  0  0  0  0  0  0  0  0
    2.1382    1.0314    0.4729 C   0  0  0  0  0  0  0  0  0  0  0  0
    2.6160    0.2931   -0.6076 C   0  0  0  0  0  0  0  0  0  0  0  0
    1.7773   -0.6075   -1.2601 C   0  0  0  0  0  0  0  0  0  0  0  0
    0.4590   -0.7704   -0.8327 C   0  0  0  0  0  0  0  0  0  0  0  0
   -2.5219    0.2804   -0.2884 C   0  0  0  0  0  0  0  0  0  0  0  0
   -3.7731    0.1903    0.2266 F   0  0  0  0  0  0  0  0  0  0  0  0
   -2.3279    1.5837   -0.6081 F   0  0  0  0  0  0  0  0  0  0  0  0
   -2.5067   -0.4294   -1.4399 F   0  0  0  0  0  0  0  0  0  0  0  0
  1  2  1  6
  1  3  1  0
  3  4  2  0
  4  5  1  0
  5  6  2  0
  6  7  1  0
  7  8  2  0
  1  9  1  0
  9 10  1  0
  9 11  1  0
  9 12  1  0
  8  3  1  0
M  END
