
     RDKit          3D

  9  9  0  0  0  0  0  0  0  0999 V2000
    2.3469   -1.8683    1.0531 O   0  0  0  0  0  0  0  0  0  0  0  0
    1.3279   -1.3797    0.5890 C   0  0  0  0  0  0  0  0  0  0  0  0
    0.1760   -2.0722    0.3504 O   0  0  0  0  0  0  0  0  0  0  0  0
   -0.7066   -1.2368   -0.4025 C   0  0  0  0  0  0  0  0  0  0  0  0
   -0.3371    0.1938   -0.0334 C   0  0  0  0  0  0  0  0  0  0  0  0
   -0.9959    0.5808    1.3049 C   0  0  0  0  0  0  0  0  0  0  0  0
   -0.7733    1.1817   -1.1164 C   0  0  0  0  0  0  0  0  0  0  0  0
    1.1765    0.0670    0.1439 C   0  0  2  0  0  0  0  0  0  0  0  0
    1.8846    0.2975   -1.0648 O   0  0  0  0  0  0  0  0  0  0  0  0
  1  2  2  0
  2  3  1  0
  3  4  1  0
  4  5  1  0
  5  6  1  0
  5  7  1  0
  5  8  1  0
  8  9  1  6
  8  2  1  0
M  END
