
     RDKit          3D

 10 10  0  0  0  0  0  0  0  0999 V2000
    3.5376    0.1373    0.9294 C   0  0  0  0  0  0  0  0  0  0  0  0
    2.0677    0.1039    0.6254 C   0  0  0  0  0  0  0  0  0  0  0  0
    1.1546    0.6406    1.4545 C   0  0  0  0  0  0  0  0  0  0  0  0
   -0.3282    0.5949    1.2057 C   0  0  0  0  0  0  0  0  0  0  0  0
   -0.7276   -0.4123    0.1077 C   0  0  2  0  0  0  0  0  0  0  0  0
    0.2285   -0.2953   -1.0891 C   0  0  0  0  0  0  0  0  0  0  0  0
    1.6757   -0.5713   -0.6667 C   0  0  0  0  0  0  0  0  0  0  0  0
   -2.1932   -0.2848   -0.2935 C   0  0  0  0  0  0  0  0  0  0  0  0
   -3.0759   -1.2560   -0.0010 C   0  0  0  0  0  0  0  0  0  0  0  0
   -2.6322    0.9508   -1.0336 C   0  0  0  0  0  0  0  0  0  0  0  0
  1  2  1  0
  2  3  2  0
  3  4  1  0
  4  5  1  0
  5  6  1  0
  6  7  1  0
  5  8  1  6
  8  9  2  0
  8 10  1  0
  7  2  1  0
M  END
