
     RDKit          3D

 24 26  0  0  0  0  0  0  0  0999 V2000
   -5.5796    0.2568    0.5461 C   0  0  0  0  0  0  0  0  0  0  0  0
   -4.9118    0.4476   -0.7872 C   0  0  0  0  0  0  0  0  0  0  0  0
   -5.4096    1.6241   -1.5816 C   0  0  0  0  0  0  0  0  0  0  0  0
   -3.9396   -0.3558   -1.2630 C   0  0  0  0  0  0  0  0  0  0  0  0
   -3.3616   -1.5357   -0.6039 C   0  0  1  0  0  0  0  0  0  0  0  0
   -1.9261   -1.9630   -0.8296 C   0  0  1  0  0  0  0  0  0  0  0  0
   -1.0020   -1.2630   -1.7498 C   0  0  0  0  0  0  0  0  0  0  0  0
   -1.2636   -1.0748   -2.9286 O   0  0  0  0  0  0  0  0  0  0  0  0
    0.1636   -0.9411   -1.1367 O   0  0  0  0  0  0  0  0  0  0  0  0
    1.0701   -0.2646   -2.0025 C   0  0  0  0  0  0  0  0  0  0  0  0
    2.2274    0.0923   -1.2300 N   0  0  0  0  0  0  0  0  0  0  0  0
    3.3088   -0.7080   -1.0542 C   0  0  0  0  0  0  0  0  0  0  0  0
    3.5334   -1.8082   -1.5223 O   0  0  0  0  0  0  0  0  0  0  0  0
    4.2127    0.0104   -0.1533 C   0  0  0  0  0  0  0  0  0  0  0  0
    3.6359    1.1696    0.1718 C   0  0  0  0  0  0  0  0  0  0  0  0
    4.2131    2.1819    1.0861 C   0  0  0  0  0  0  0  0  0  0  0  0
    5.4107    1.5976    1.8570 C   0  0  0  0  0  0  0  0  0  0  0  0
    6.3111    0.7227    0.9688 C   0  0  0  0  0  0  0  0  0  0  0  0
    5.5419   -0.4411    0.3187 C   0  0  0  0  0  0  0  0  0  0  0  0
    2.3386    1.2340   -0.5045 C   0  0  0  0  0  0  0  0  0  0  0  0
    1.5517    2.1564   -0.4003 O   0  0  0  0  0  0  0  0  0  0  0  0
   -2.3425   -1.3766    0.5141 C   0  0  0  0  0  0  0  0  0  0  0  0
   -2.4449   -2.3281    1.6813 C   0  0  0  0  0  0  0  0  0  0  0  0
   -1.8644    0.0018    0.9159 C   0  0  0  0  0  0  0  0  0  0  0  0
  1  2  1  0
  2  3  1  0
  2  4  2  3
  5  4  1  6
  5  6  1  0
  6  7  1  6
  7  8  2  0
  7  9  1  0
  9 10  1  0
 10 11  1  0
 11 12  1  0
 12 13  2  0
 12 14  1  0
 14 15  2  0
 15 16  1  0
 16 17  1  0
 17 18  1  0
 18 19  1  0
 15 20  1  0
 20 21  2  0
  6 22  1  0
 22 23  1  0
 22 24  1  0
 22  5  1  0
 20 11  1  0
 19 14  1  0
M  END
