
     RDKit          3D

 10  9  0  0  0  0  0  0  0  0999 V2000
    0.0814    2.2466    1.7414 C   0  0  0  0  0  0  0  0  0  0  0  0
   -0.7456    0.9987    1.4549 C   0  0  0  0  0  0  0  0  0  0  0  0
   -0.4788    0.4408    0.0476 C   0  0  1  0  0  0  0  0  0  0  0  0
    0.8784   -0.0496    0.0186 O   0  0  0  0  0  0  0  0  0  0  0  0
    1.6950    0.4323   -0.9567 C   0  0  0  0  0  0  0  0  0  0  0  0
    3.0546   -0.1834   -0.8266 C   0  0  0  0  0  0  0  0  0  0  0  0
    1.3867    1.2418   -1.8188 O   0  0  0  0  0  0  0  0  0  0  0  0
   -1.4502   -0.7065   -0.3253 C   0  0  0  0  0  0  0  0  0  0  0  0
   -1.3122   -1.9369    0.5767 C   0  0  0  0  0  0  0  0  0  0  0  0
   -1.2559   -1.1306   -1.7853 C   0  0  0  0  0  0  0  0  0  0  0  0
  1  2  1  0
  3  2  1  1
  3  4  1  0
  4  5  1  0
  5  6  1  0
  5  7  2  0
  3  8  1  0
  8  9  1  0
  8 10  1  0
M  END
