
     RDKit          3D

 24 25  0  0  0  0  0  0  0  0999 V2000
   -3.9209    1.3841    1.9376 C   0  0  0  0  0  0  0  0  0  0  0  0
   -2.9572    1.1839    0.7638 C   0  0  0  0  0  0  0  0  0  0  0  0
   -3.3221    2.1434   -0.3669 C   0  0  0  0  0  0  0  0  0  0  0  0
   -2.9619   -0.3002    0.3362 C   0  0  0  0  0  0  0  0  0  0  0  0
   -1.9559   -0.6550   -0.7861 C   0  0  2  0  0  0  0  0  0  0  0  0
   -2.6119   -0.6776   -2.1745 C   0  0  0  0  0  0  0  0  0  0  0  0
   -1.2485   -1.9769   -0.4939 C   0  0  0  0  0  0  0  0  0  0  0  0
   -2.1726   -3.4363   -0.4803 S   0  0  0  0  0  0  0  0  0  0  0  0
   -0.8115   -4.3817   -0.1094 C   0  0  0  0  0  0  0  0  0  0  0  0
    0.3248   -3.6177    0.0121 C   0  0  0  0  0  0  0  0  0  0  0  0
    0.0920   -2.2229   -0.2067 C   0  0  0  0  0  0  0  0  0  0  0  0
    1.0441   -1.2024   -0.1390 N   0  0  0  0  0  0  0  0  0  0  0  0
    2.3995   -1.3824    0.0723 C   0  0  0  0  0  0  0  0  0  0  0  0
    2.9711   -2.4645    0.1442 O   0  0  0  0  0  0  0  0  0  0  0  0
    3.1773   -0.1478    0.1585 C   0  0  0  0  0  0  0  0  0  0  0  0
    4.5064   -0.0411   -0.2124 C   0  0  0  0  0  0  0  0  0  0  0  0
    4.8811    1.2421    0.0258 N   0  0  0  0  0  0  0  0  0  0  0  0
    6.1799    1.8270   -0.2081 C   0  0  0  0  0  0  0  0  0  0  0  0
    3.8972    1.9973    0.5384 N   0  0  0  0  0  0  0  0  0  0  0  0
    2.8519    1.1524    0.6602 C   0  0  0  0  0  0  0  0  0  0  0  0
    1.5462    1.5775    1.2687 C   0  0  0  0  0  0  0  0  0  0  0  0
    1.2206    0.8206    2.3490 F   0  0  0  0  0  0  0  0  0  0  0  0
    1.5047    2.8745    1.6640 F   0  0  0  0  0  0  0  0  0  0  0  0
    0.5315    1.4110    0.3716 F   0  0  0  0  0  0  0  0  0  0  0  0
  1  2  1  0
  2  3  1  0
  2  4  1  0
  4  5  1  0
  5  6  1  6
  5  7  1  0
  7  8  1  0
  8  9  1  0
  9 10  2  0
 10 11  1  0
 11 12  1  0
 12 13  1  0
 13 14  2  0
 13 15  1  0
 15 16  2  0
 16 17  1  0
 17 18  1  0
 17 19  1  0
 19 20  2  0
 20 21  1  0
 21 22  1  0
 21 23  1  0
 21 24  1  0
 11  7  2  0
 20 15  1  0
M  END
