
     RDKit          3D

 12 12  0  0  0  0  0  0  0  0999 V2000
    2.6614   -1.5646   -1.0816 C   0  0  0  0  0  0  0  0  0  0  0  0
    2.3730   -0.2574   -0.9966 C   0  0  0  0  0  0  0  0  0  0  0  0
    1.2292    0.3736   -0.2151 C   0  0  1  0  0  0  0  0  0  0  0  0
    1.8434    1.3178    0.8294 C   0  0  0  0  0  0  0  0  0  0  0  0
    0.3418    1.1403   -1.2089 C   0  0  0  0  0  0  0  0  0  0  0  0
   -0.9717    1.6375   -0.6170 C   0  0  0  0  0  0  0  0  0  0  0  0
   -1.4533    0.8070    0.5711 C   0  0  1  0  0  0  0  0  0  0  0  0
   -2.8790    0.8473    0.6318 O   0  0  0  0  0  0  0  0  0  0  0  0
   -0.8894   -0.6327    0.5721 C   0  0  0  0  0  0  0  0  0  0  0  0
   -1.4650   -1.5102   -0.5514 C   0  0  0  0  0  0  0  0  0  0  0  0
   -1.2383   -1.3138    1.9072 C   0  0  0  0  0  0  0  0  0  0  0  0
    0.5421   -0.6632    0.4933 O   0  0  0  0  0  0  0  0  0  0  0  0
  1  2  2  0
  2  3  1  0
  3  4  1  1
  3  5  1  0
  5  6  1  0
  6  7  1  0
  7  8  1  6
  7  9  1  0
  9 10  1  0
  9 11  1  0
  9 12  1  0
 12  3  1  0
M  END
