
     RDKit          3D

 24 26  0  0  0  0  0  0  0  0999 V2000
    5.6159   -1.5798    0.7151 C   0  0  0  0  0  0  0  0  0  0  0  0
    5.6169   -0.0832    0.8430 C   0  0  0  0  0  0  0  0  0  0  0  0
    6.9655    0.5656    0.6891 C   0  0  0  0  0  0  0  0  0  0  0  0
    4.5113    0.6493    1.0769 C   0  0  0  0  0  0  0  0  0  0  0  0
    3.1373    0.1569    1.2516 C   0  0  1  0  0  0  0  0  0  0  0  0
    1.9848    1.0198    0.7767 C   0  0  2  0  0  0  0  0  0  0  0  0
    0.7776    1.1680    1.6180 C   0  0  0  0  0  0  0  0  0  0  0  0
    0.8364    1.4439    2.8060 O   0  0  0  0  0  0  0  0  0  0  0  0
   -0.3536    0.9806    0.8973 O   0  0  0  0  0  0  0  0  0  0  0  0
   -1.5325    1.0806    1.6904 C   0  0  0  0  0  0  0  0  0  0  0  0
   -2.6495    0.7442    0.8516 N   0  0  0  0  0  0  0  0  0  0  0  0
   -3.0726   -0.5256    0.6215 C   0  0  0  0  0  0  0  0  0  0  0  0
   -2.6525   -1.5694    1.0848 O   0  0  0  0  0  0  0  0  0  0  0  0
   -4.1747   -0.4269   -0.3371 C   0  0  0  0  0  0  0  0  0  0  0  0
   -4.3359    0.8622   -0.6473 C   0  0  0  0  0  0  0  0  0  0  0  0
   -5.3467    1.3915   -1.5924 C   0  0  0  0  0  0  0  0  0  0  0  0
   -6.3883    0.3111   -1.9355 C   0  0  0  0  0  0  0  0  0  0  0  0
   -5.7486   -1.0697   -2.1490 C   0  0  0  0  0  0  0  0  0  0  0  0
   -4.9532   -1.5440   -0.9194 C   0  0  0  0  0  0  0  0  0  0  0  0
   -3.3497    1.6373    0.1085 C   0  0  0  0  0  0  0  0  0  0  0  0
   -3.2238    2.8457    0.0422 O   0  0  0  0  0  0  0  0  0  0  0  0
    2.3058   -0.2839    0.0583 C   0  0  0  0  0  0  0  0  0  0  0  0
    1.4254   -1.4950    0.2598 C   0  0  0  0  0  0  0  0  0  0  0  0
    2.8414   -0.1677   -1.3488 C   0  0  0  0  0  0  0  0  0  0  0  0
  1  2  1  0
  2  3  1  0
  2  4  2  3
  5  4  1  6
  5  6  1  0
  6  7  1  1
  7  8  2  0
  7  9  1  0
  9 10  1  0
 10 11  1  0
 11 12  1  0
 12 13  2  0
 12 14  1  0
 14 15  2  0
 15 16  1  0
 16 17  1  0
 17 18  1  0
 18 19  1  0
 15 20  1  0
 20 21  2  0
  6 22  1  0
 22 23  1  0
 22 24  1  0
 22  5  1  0
 20 11  1  0
 19 14  1  0
M  END
