
     RDKit          3D

  9  9  0  0  0  0  0  0  0  0999 V2000
    3.1311    0.1988    0.1015 O   0  0  0  0  0  0  0  0  0  0  0  0
    1.9601   -0.0046    0.3821 C   0  0  0  0  0  0  0  0  0  0  0  0
    1.4078    0.1755    1.6185 O   0  0  0  0  0  0  0  0  0  0  0  0
    0.0117   -0.1384    1.5534 C   0  0  0  0  0  0  0  0  0  0  0  0
   -0.3785   -0.0139    0.0847 C   0  0  0  0  0  0  0  0  0  0  0  0
   -0.6911    1.4511   -0.2730 C   0  0  0  0  0  0  0  0  0  0  0  0
   -1.5897   -0.8824   -0.2580 C   0  0  0  0  0  0  0  0  0  0  0  0
    0.9000   -0.5125   -0.5832 C   0  0  1  0  0  0  0  0  0  0  0  0
    1.0238   -0.0826   -1.9216 O   0  0  0  0  0  0  0  0  0  0  0  0
  1  2  2  0
  2  3  1  0
  3  4  1  0
  4  5  1  0
  5  6  1  0
  5  7  1  0
  5  8  1  0
  8  9  1  6
  8  2  1  0
M  END
