
     RDKit          3D

 10 10  0  0  0  0  0  0  0  0999 V2000
   -2.2071    0.4585    1.6631 C   0  0  0  0  0  0  0  0  0  0  0  0
   -1.7357    0.4449    0.2020 C   0  0  0  0  0  0  0  0  0  0  0  0
   -2.8816   -0.1028   -0.6629 C   0  0  0  0  0  0  0  0  0  0  0  0
   -0.4136   -0.3633    0.0115 C   0  0  2  0  0  0  0  0  0  0  0  0
    0.6730    0.0811    1.0193 C   0  0  0  0  0  0  0  0  0  0  0  0
    2.0489   -0.4873    0.6731 C   0  0  0  0  0  0  0  0  0  0  0  0
    2.4583   -0.1124   -0.7282 C   0  0  0  0  0  0  0  0  0  0  0  0
    3.7197    0.2152   -1.0442 C   0  0  0  0  0  0  0  0  0  0  0  0
    1.4115   -0.1379   -1.7272 C   0  0  0  0  0  0  0  0  0  0  0  0
    0.1155   -0.2786   -1.4092 C   0  0  0  0  0  0  0  0  0  0  0  0
  1  2  1  0
  2  3  1  0
  4  2  1  6
  4  5  1  0
  5  6  1  0
  6  7  1  0
  7  8  2  0
  7  9  1  0
  9 10  2  0
 10  4  1  0
M  END
