
     RDKit          3D

 10 10  0  0  0  0  0  0  0  0999 V2000
   -2.0957    1.1717   -0.6120 C   0  0  0  0  0  0  0  0  0  0  0  0
   -1.7827    0.3127    0.6186 C   0  0  0  0  0  0  0  0  0  0  0  0
   -2.7241   -0.8955    0.6559 C   0  0  0  0  0  0  0  0  0  0  0  0
   -0.2914   -0.1150    0.7329 C   0  0  1  0  0  0  0  0  0  0  0  0
    0.1745   -1.0332   -0.4178 C   0  0  0  0  0  0  0  0  0  0  0  0
    1.6908   -1.2347   -0.3930 C   0  0  0  0  0  0  0  0  0  0  0  0
    2.4207    0.0861   -0.4385 C   0  0  0  0  0  0  0  0  0  0  0  0
    3.5523    0.2541   -1.1385 C   0  0  0  0  0  0  0  0  0  0  0  0
    1.8395    1.1709    0.3263 C   0  0  0  0  0  0  0  0  0  0  0  0
    0.6234    1.0828    0.8855 C   0  0  0  0  0  0  0  0  0  0  0  0
  1  2  1  0
  2  3  1  0
  4  2  1  6
  4  5  1  0
  5  6  1  0
  6  7  1  0
  7  8  2  0
  7  9  1  0
  9 10  2  0
 10  4  1  0
M  END
