
     RDKit          3D

 24 26  0  0  0  0  0  0  0  0999 V2000
    5.0520   -0.2004    2.6788 C   0  0  0  0  0  0  0  0  0  0  0  0
    4.6627    0.4575    1.3828 C   0  0  0  0  0  0  0  0  0  0  0  0
    5.0336    1.9124    1.2796 C   0  0  0  0  0  0  0  0  0  0  0  0
    4.0289   -0.2281    0.4102 C   0  0  0  0  0  0  0  0  0  0  0  0
    3.6077    0.2799   -0.9031 C   0  0  2  0  0  0  0  0  0  0  0  0
    2.3398    1.0904   -1.0739 C   0  0  2  0  0  0  0  0  0  0  0  0
    1.4526    1.4589    0.0541 C   0  0  0  0  0  0  0  0  0  0  0  0
    1.8166    2.1768    0.9730 O   0  0  0  0  0  0  0  0  0  0  0  0
    0.1945    0.9822   -0.1196 O   0  0  0  0  0  0  0  0  0  0  0  0
   -0.6766    1.3258    0.9532 C   0  0  0  0  0  0  0  0  0  0  0  0
   -1.9535    0.7270    0.6815 N   0  0  0  0  0  0  0  0  0  0  0  0
   -2.9411    1.3210   -0.0348 C   0  0  0  0  0  0  0  0  0  0  0  0
   -2.9711    2.4359   -0.5208 O   0  0  0  0  0  0  0  0  0  0  0  0
   -4.0300    0.3445   -0.1244 C   0  0  0  0  0  0  0  0  0  0  0  0
   -3.6525   -0.7563    0.5294 C   0  0  0  0  0  0  0  0  0  0  0  0
   -4.4645   -1.9892    0.6622 C   0  0  0  0  0  0  0  0  0  0  0  0
   -5.6581   -1.9613   -0.3103 C   0  0  0  0  0  0  0  0  0  0  0  0
   -6.3235   -0.5767   -0.3853 C   0  0  0  0  0  0  0  0  0  0  0  0
   -5.3357    0.5291   -0.7998 C   0  0  0  0  0  0  0  0  0  0  0  0
   -2.3007   -0.5334    1.0475 C   0  0  0  0  0  0  0  0  0  0  0  0
   -1.6607   -1.3530    1.6776 O   0  0  0  0  0  0  0  0  0  0  0  0
    2.4229   -0.3228   -1.6410 C   0  0  0  0  0  0  0  0  0  0  0  0
    2.5406   -0.4532   -3.1410 C   0  0  0  0  0  0  0  0  0  0  0  0
    1.6233   -1.4452   -1.0179 C   0  0  0  0  0  0  0  0  0  0  0  0
  1  2  1  0
  2  3  1  0
  2  4  2  3
  5  4  1  1
  5  6  1  0
  6  7  1  1
  7  8  2  0
  7  9  1  0
  9 10  1  0
 10 11  1  0
 11 12  1  0
 12 13  2  0
 12 14  1  0
 14 15  2  0
 15 16  1  0
 16 17  1  0
 17 18  1  0
 18 19  1  0
 15 20  1  0
 20 21  2  0
  6 22  1  0
 22 23  1  0
 22 24  1  0
 22  5  1  0
 20 11  1  0
 19 14  1  0
M  END
