
     RDKit          3D

 24 26  0  0  0  0  0  0  0  0999 V2000
    3.8215   -2.1487    2.4958 C   0  0  0  0  0  0  0  0  0  0  0  0
    3.9047   -1.2846    1.2684 C   0  0  0  0  0  0  0  0  0  0  0  0
    4.4309   -1.9829    0.0402 C   0  0  0  0  0  0  0  0  0  0  0  0
    3.5383    0.0106    1.3054 C   0  0  0  0  0  0  0  0  0  0  0  0
    3.5639    0.9854    0.1985 C   0  0  2  0  0  0  0  0  0  0  0  0
    2.4847    2.0416    0.0572 C   0  0  2  0  0  0  0  0  0  0  0  0
    1.3742    2.1950    1.0280 C   0  0  0  0  0  0  0  0  0  0  0  0
    1.5605    2.5123    2.1938 O   0  0  0  0  0  0  0  0  0  0  0  0
    0.1737    2.0081    0.4417 O   0  0  0  0  0  0  0  0  0  0  0  0
   -0.9484    2.1541    1.3092 C   0  0  0  0  0  0  0  0  0  0  0  0
   -2.0129    1.3505    0.7726 N   0  0  0  0  0  0  0  0  0  0  0  0
   -2.3469    0.1167    1.2296 C   0  0  0  0  0  0  0  0  0  0  0  0
   -1.8825   -0.5072    2.1655 O   0  0  0  0  0  0  0  0  0  0  0  0
   -3.4233   -0.3678    0.3640 C   0  0  0  0  0  0  0  0  0  0  0  0
   -3.6713    0.5726   -0.5541 C   0  0  0  0  0  0  0  0  0  0  0  0
   -4.6656    0.4563   -1.6496 C   0  0  0  0  0  0  0  0  0  0  0  0
   -5.1314   -1.0052   -1.7958 C   0  0  0  0  0  0  0  0  0  0  0  0
   -5.3790   -1.6785   -0.4329 C   0  0  0  0  0  0  0  0  0  0  0  0
   -4.1309   -1.6632    0.4710 C   0  0  0  0  0  0  0  0  0  0  0  0
   -2.7691    1.6982   -0.3010 C   0  0  0  0  0  0  0  0  0  0  0  0
   -2.7462    2.7245   -0.9583 O   0  0  0  0  0  0  0  0  0  0  0  0
    2.5690    0.9039   -0.9483 C   0  0  0  0  0  0  0  0  0  0  0  0
    3.0789    1.2485   -2.3285 C   0  0  0  0  0  0  0  0  0  0  0  0
    1.5094   -0.1758   -0.9641 C   0  0  0  0  0  0  0  0  0  0  0  0
  1  2  1  0
  2  3  1  0
  2  4  2  3
  5  4  1  1
  5  6  1  0
  6  7  1  1
  7  8  2  0
  7  9  1  0
  9 10  1  0
 10 11  1  0
 11 12  1  0
 12 13  2  0
 12 14  1  0
 14 15  2  0
 15 16  1  0
 16 17  1  0
 17 18  1  0
 18 19  1  0
 15 20  1  0
 20 21  2  0
  6 22  1  0
 22 23  1  0
 22 24  1  0
 22  5  1  0
 20 11  1  0
 19 14  1  0
M  END
