
     RDKit          3D

 26 28  0  0  0  0  0  0  0  0999 V2000
   -4.8072    1.8804    0.6928 C   0  0  0  0  0  0  0  0  0  0  0  0
   -4.9341    0.6928   -0.2323 C   0  0  0  0  0  0  0  0  0  0  0  0
   -6.3174    0.5443   -0.8201 C   0  0  0  0  0  0  0  0  0  0  0  0
   -4.0932   -0.5284    0.1013 C   0  0  1  0  0  0  0  0  0  0  0  0
   -4.6336   -1.8857   -0.0758 C   0  0  0  0  0  0  0  0  0  0  0  0
   -5.4117   -2.5669    0.7800 C   0  0  0  0  0  0  0  0  0  0  0  0
   -5.9405   -4.1657    0.3943 Cl  0  0  0  0  0  0  0  0  0  0  0  0
   -5.9206   -1.8992    2.2880 Cl  0  0  0  0  0  0  0  0  0  0  0  0
   -3.7622    0.3025   -1.1234 C   0  0  2  0  0  0  0  0  0  0  0  0
   -2.5311    1.1256   -1.1752 C   0  0  0  0  0  0  0  0  0  0  0  0
   -2.5256    2.2515   -1.6482 O   0  0  0  0  0  0  0  0  0  0  0  0
   -1.4626    0.4616   -0.6708 O   0  0  0  0  0  0  0  0  0  0  0  0
   -0.2517    1.2226   -0.6995 C   0  0  0  0  0  0  0  0  0  0  0  0
    0.8568    0.4088   -0.0770 C   0  0  0  0  0  0  0  0  0  0  0  0
    0.6657   -0.2529    1.1463 C   0  0  0  0  0  0  0  0  0  0  0  0
    1.6982   -0.9936    1.7253 C   0  0  0  0  0  0  0  0  0  0  0  0
    2.9409   -1.0680    1.0976 C   0  0  0  0  0  0  0  0  0  0  0  0
    3.1526   -0.3858   -0.1020 C   0  0  0  0  0  0  0  0  0  0  0  0
    4.3427   -0.4407   -0.7926 O   0  0  0  0  0  0  0  0  0  0  0  0
    5.5021   -0.2798   -0.0688 C   0  0  0  0  0  0  0  0  0  0  0  0
    6.5340   -1.1863   -0.3122 C   0  0  0  0  0  0  0  0  0  0  0  0
    7.7468   -1.0565    0.3650 C   0  0  0  0  0  0  0  0  0  0  0  0
    7.9309   -0.0120    1.2714 C   0  0  0  0  0  0  0  0  0  0  0  0
    6.9064    0.9081    1.4965 C   0  0  0  0  0  0  0  0  0  0  0  0
    5.6921    0.7804    0.8208 C   0  0  0  0  0  0  0  0  0  0  0  0
    2.1137    0.3353   -0.6947 C   0  0  0  0  0  0  0  0  0  0  0  0
  1  2  1  0
  2  3  1  0
  2  4  1  0
  4  5  1  6
  5  6  2  3
  6  7  1  0
  6  8  1  0
  4  9  1  0
  9 10  1  1
 10 11  2  0
 10 12  1  0
 12 13  1  0
 13 14  1  0
 14 15  2  0
 15 16  1  0
 16 17  2  0
 17 18  1  0
 18 19  1  0
 19 20  1  0
 20 21  2  0
 21 22  1  0
 22 23  2  0
 23 24  1  0
 24 25  2  0
 18 26  2  0
  9  2  1  0
 26 14  1  0
 25 20  1  0
M  END
