
     RDKit          3D

 12 12  0  0  0  0  0  0  0  0999 V2000
    2.5752   -1.1359   -0.2190 O   0  0  0  0  0  0  0  0  0  0  0  0
    1.6392   -0.1312   -0.2150 C   0  0  0  0  0  0  0  0  0  0  0  0
    1.6702    0.8430   -0.9550 O   0  0  0  0  0  0  0  0  0  0  0  0
    0.6173   -0.3944    0.9124 C   0  0  2  0  0  0  0  0  0  0  0  0
    0.5044   -1.7791    1.2528 O   0  0  0  0  0  0  0  0  0  0  0  0
   -0.7581    0.1521    0.5847 C   0  0  0  0  0  0  0  0  0  0  0  0
   -1.0845    1.4787    0.9100 C   0  0  0  0  0  0  0  0  0  0  0  0
   -2.3396    2.0019    0.5923 C   0  0  0  0  0  0  0  0  0  0  0  0
   -3.2827    1.2090   -0.0580 C   0  0  0  0  0  0  0  0  0  0  0  0
   -2.9715   -0.1065   -0.3938 C   0  0  0  0  0  0  0  0  0  0  0  0
   -1.7166   -0.6309   -0.0782 C   0  0  0  0  0  0  0  0  0  0  0  0
    3.5801   -0.9823   -1.2230 C   0  0  0  0  0  0  0  0  0  0  0  0
  1  2  1  0
  2  3  2  0
  2  4  1  0
  4  5  1  6
  4  6  1  0
  6  7  2  0
  7  8  1  0
  8  9  2  0
  9 10  1  0
 10 11  2  0
  1 12  1  0
 11  6  1  0
M  END
