
     RDKit          3D

 21 22  0  0  0  0  0  0  0  0999 V2000
   -2.9986   -1.2774    1.3940 C   0  0  0  0  0  0  0  0  0  0  0  0
   -2.2658   -0.5278    0.2534 C   0  0  0  0  0  0  0  0  0  0  0  0
   -2.0269   -1.5328   -0.8900 C   0  0  0  0  0  0  0  0  0  0  0  0
   -3.2252    0.5649   -0.2530 C   0  0  0  0  0  0  0  0  0  0  0  0
   -0.9216    0.0702    0.8133 C   0  0  1  0  0  0  0  0  0  0  0  0
   -0.2370   -0.9659    1.5423 O   0  0  0  0  0  0  0  0  0  0  0  0
    0.0699    0.7253   -0.2007 C   0  0  2  0  0  0  0  0  0  0  0  0
    1.4504    1.0575    0.4306 C   0  0  0  0  0  0  0  0  0  0  0  0
    2.4712   -0.0653    0.3733 C   0  0  0  0  0  0  0  0  0  0  0  0
    2.8009   -0.7441    1.5593 C   0  0  0  0  0  0  0  0  0  0  0  0
    3.7372   -1.7798    1.5569 C   0  0  0  0  0  0  0  0  0  0  0  0
    4.3623   -2.1431    0.3685 C   0  0  0  0  0  0  0  0  0  0  0  0
    5.5139   -3.4208    0.3648 Cl  0  0  0  0  0  0  0  0  0  0  0  0
    4.0619   -1.4798   -0.8172 C   0  0  0  0  0  0  0  0  0  0  0  0
    3.1237   -0.4440   -0.8140 C   0  0  0  0  0  0  0  0  0  0  0  0
    2.8100    0.3481   -2.3175 Cl  0  0  0  0  0  0  0  0  0  0  0  0
   -0.4563    1.9449   -0.7999 N   0  0  0  0  0  0  0  0  0  0  0  0
   -0.5253    2.2563   -2.1238 C   0  0  0  0  0  0  0  0  0  0  0  0
   -1.0105    3.4681   -2.2635 N   0  0  0  0  0  0  0  0  0  0  0  0
   -1.2001    3.8747   -0.9741 C   0  0  0  0  0  0  0  0  0  0  0  0
   -0.8664    2.9791   -0.0409 N   0  0  0  0  0  0  0  0  0  0  0  0
  1  2  1  0
  2  3  1  0
  2  4  1  0
  2  5  1  0
  5  6  1  6
  5  7  1  0
  7  8  1  1
  8  9  1  0
  9 10  2  0
 10 11  1  0
 11 12  2  0
 12 13  1  0
 12 14  1  0
 14 15  2  0
 15 16  1  0
  7 17  1  0
 17 18  1  0
 18 19  2  0
 19 20  1  0
 20 21  2  0
 15  9  1  0
 21 17  1  0
M  END
