
     RDKit          3D

 11 10  0  0  0  0  0  0  0  0999 V2000
    4.1102    0.7821    0.0170 C   0  0  0  0  0  0  0  0  0  0  0  0
    2.8054    0.0534    0.2074 C   0  0  0  0  0  0  0  0  0  0  0  0
    1.8129    0.1744   -0.6959 C   0  0  0  0  0  0  0  0  0  0  0  0
    0.4690   -0.5050   -0.6800 C   0  0  0  0  0  0  0  0  0  0  0  0
   -0.6316    0.4670   -0.2379 C   0  0  0  0  0  0  0  0  0  0  0  0
   -2.0333   -0.1723   -0.1300 C   0  0  2  0  0  0  0  0  0  0  0  0
   -2.5197   -0.7369   -1.4665 C   0  0  0  0  0  0  0  0  0  0  0  0
   -3.0253    0.8653    0.3612 C   0  0  0  0  0  0  0  0  0  0  0  0
   -3.8545    0.7584    1.4100 C   0  0  0  0  0  0  0  0  0  0  0  0
   -1.9762   -1.2573    0.7955 O   0  0  0  0  0  0  0  0  0  0  0  0
    2.7361   -0.7730    1.4620 C   0  0  0  0  0  0  0  0  0  0  0  0
  1  2  1  0
  2  3  2  3
  3  4  1  0
  4  5  1  0
  5  6  1  0
  6  7  1  6
  6  8  1  0
  8  9  2  0
  6 10  1  0
  2 11  1  0
M  END
