
     RDKit          3D

 22 24  0  0  0  0  0  0  0  0999 V2000
   -1.4163   -2.3512    2.0429 C   0  0  0  0  0  0  0  0  0  0  0  0
   -1.4921   -2.0440    0.5254 C   0  0  0  0  0  0  0  0  0  0  0  0
   -2.7585   -2.7346   -0.0047 C   0  0  0  0  0  0  0  0  0  0  0  0
   -0.2514   -2.6144   -0.1788 C   0  0  0  0  0  0  0  0  0  0  0  0
    0.8342   -1.6036    0.1400 C   0  0  0  0  0  0  0  0  0  0  0  0
    0.1413   -0.2419   -0.0337 C   0  0  2  0  0  0  0  0  0  0  0  0
    0.7951    0.8626    0.8099 C   0  0  0  0  0  0  0  0  0  0  0  0
    2.2303    1.1383    0.4230 C   0  0  0  0  0  0  0  0  0  0  0  0
    3.2835    0.7426    1.2589 C   0  0  0  0  0  0  0  0  0  0  0  0
    4.6081    0.9932    0.8935 C   0  0  0  0  0  0  0  0  0  0  0  0
    4.8847    1.6406   -0.3086 C   0  0  0  0  0  0  0  0  0  0  0  0
    6.5172    1.9473   -0.7582 Cl  0  0  0  0  0  0  0  0  0  0  0  0
    3.8486    2.0405   -1.1489 C   0  0  0  0  0  0  0  0  0  0  0  0
    2.5244    1.7903   -0.7837 C   0  0  0  0  0  0  0  0  0  0  0  0
   -1.3909   -0.4919    0.2294 C   0  0  2  0  0  0  0  0  0  0  0  0
   -1.8869    0.2031    1.3810 O   0  0  0  0  0  0  0  0  0  0  0  0
   -2.2420   -0.0590   -0.9968 C   0  0  0  0  0  0  0  0  0  0  0  0
   -2.2135    1.3657   -1.2659 N   0  0  0  0  0  0  0  0  0  0  0  0
   -3.0982    2.3059   -0.8351 C   0  0  0  0  0  0  0  0  0  0  0  0
   -2.7337    3.4857   -1.2799 N   0  0  0  0  0  0  0  0  0  0  0  0
   -1.6160    3.2065   -2.0124 C   0  0  0  0  0  0  0  0  0  0  0  0
   -1.2546    1.9204   -2.0296 N   0  0  0  0  0  0  0  0  0  0  0  0
  1  2  1  0
  2  3  1  0
  2  4  1  0
  4  5  1  0
  5  6  1  0
  6  7  1  1
  7  8  1  0
  8  9  2  0
  9 10  1  0
 10 11  2  0
 11 12  1  0
 11 13  1  0
 13 14  2  0
  6 15  1  0
 15 16  1  1
 15 17  1  0
 17 18  1  0
 18 19  1  0
 19 20  2  0
 20 21  1  0
 21 22  2  0
 15  2  1  0
 22 18  1  0
 14  8  1  0
M  END
