
     RDKit          3D

 21 22  0  0  0  0  0  0  0  0999 V2000
   -3.2018    0.6576   -0.3181 C   0  0  0  0  0  0  0  0  0  0  0  0
   -2.2222   -0.5122   -0.5255 C   0  0  0  0  0  0  0  0  0  0  0  0
   -2.1963   -1.3585    0.7618 C   0  0  0  0  0  0  0  0  0  0  0  0
   -2.8066   -1.3939   -1.6573 C   0  0  0  0  0  0  0  0  0  0  0  0
   -0.7869   -0.0218   -0.9466 C   0  0  2  0  0  0  0  0  0  0  0  0
   -0.0435   -1.1599   -1.4214 O   0  0  0  0  0  0  0  0  0  0  0  0
    0.0682    0.7442    0.1129 C   0  0  1  0  0  0  0  0  0  0  0  0
    1.5394    0.9610   -0.3380 C   0  0  0  0  0  0  0  0  0  0  0  0
    2.4947   -0.1638    0.0201 C   0  0  0  0  0  0  0  0  0  0  0  0
    2.9696   -1.0027   -1.0031 C   0  0  0  0  0  0  0  0  0  0  0  0
    3.8530   -2.0469   -0.7230 C   0  0  0  0  0  0  0  0  0  0  0  0
    4.2794   -2.2591    0.5840 C   0  0  0  0  0  0  0  0  0  0  0  0
    5.3657   -3.5472    0.9298 Cl  0  0  0  0  0  0  0  0  0  0  0  0
    3.8329   -1.4363    1.6134 C   0  0  0  0  0  0  0  0  0  0  0  0
    2.9476   -0.3921    1.3322 C   0  0  0  0  0  0  0  0  0  0  0  0
    2.4458    0.6014    2.6541 Cl  0  0  0  0  0  0  0  0  0  0  0  0
   -0.4921    2.0435    0.4609 N   0  0  0  0  0  0  0  0  0  0  0  0
   -0.7447    2.5317    1.7068 C   0  0  0  0  0  0  0  0  0  0  0  0
   -1.1964    3.7607    1.6119 N   0  0  0  0  0  0  0  0  0  0  0  0
   -1.1758    3.9936    0.2668 C   0  0  0  0  0  0  0  0  0  0  0  0
   -0.7431    2.9740   -0.4799 N   0  0  0  0  0  0  0  0  0  0  0  0
  1  2  1  0
  2  3  1  0
  2  4  1  0
  2  5  1  0
  5  6  1  1
  5  7  1  0
  7  8  1  6
  8  9  1  0
  9 10  2  0
 10 11  1  0
 11 12  2  0
 12 13  1  0
 12 14  1  0
 14 15  2  0
 15 16  1  0
  7 17  1  0
 17 18  1  0
 18 19  2  0
 19 20  1  0
 20 21  2  0
 15  9  1  0
 21 17  1  0
M  END
