
     RDKit          3D

 13 14  0  0  0  0  0  0  0  0999 V2000
   -3.2036    0.8720   -1.1232 C   0  0  0  0  0  0  0  0  0  0  0  0
   -2.7586   -0.2283   -0.1693 C   0  0  1  0  0  0  0  0  0  0  0  0
   -1.2565   -0.4076   -0.1472 C   0  0  0  0  0  0  0  0  0  0  0  0
   -0.4185    0.5836    0.3910 C   0  0  0  0  0  0  0  0  0  0  0  0
    0.9775    0.4267    0.4174 C   0  0  0  0  0  0  0  0  0  0  0  0
    1.8160    1.4160    0.9564 C   0  0  0  0  0  0  0  0  0  0  0  0
    3.2012    1.2447    0.9754 C   0  0  0  0  0  0  0  0  0  0  0  0
    3.7654    0.0833    0.4562 C   0  0  0  0  0  0  0  0  0  0  0  0
    2.9457   -0.9094   -0.0832 C   0  0  0  0  0  0  0  0  0  0  0  0
    1.5503   -0.7520   -0.1095 C   0  0  0  0  0  0  0  0  0  0  0  0
    0.7119   -1.7395   -0.6481 C   0  0  0  0  0  0  0  0  0  0  0  0
   -0.6750   -1.5694   -0.6671 C   0  0  0  0  0  0  0  0  0  0  0  0
   -3.2340    0.0783    1.1405 O   0  0  0  0  0  0  0  0  0  0  0  0
  2  1  1  6
  2  3  1  0
  3  4  2  0
  4  5  1  0
  5  6  2  0
  6  7  1  0
  7  8  2  0
  8  9  1  0
  9 10  2  0
 10 11  1  0
 11 12  2  0
  2 13  1  0
 12  3  1  0
 10  5  1  0
M  END
