
     RDKit          3D

 25 27  0  0  0  0  0  0  0  0999 V2000
   -6.2718   -0.5470    1.1101 C   0  0  0  0  0  0  0  0  0  0  0  0
   -4.9514   -0.4713    1.8244 C   0  0  0  0  0  0  0  0  0  0  0  0
   -3.8135   -0.0227    1.2583 C   0  0  0  0  0  0  0  0  0  0  0  0
   -3.6416    0.4775   -0.1139 C   0  0  1  0  0  0  0  0  0  0  0  0
   -2.3405    0.3362   -0.8781 C   0  0  2  0  0  0  0  0  0  0  0  0
   -3.5535   -0.4916   -1.2825 C   0  0  0  0  0  0  0  0  0  0  0  0
   -3.5510   -1.9839   -1.0425 C   0  0  0  0  0  0  0  0  0  0  0  0
   -4.2655   -0.1019   -2.5551 C   0  0  0  0  0  0  0  0  0  0  0  0
   -1.1140   -0.2835   -0.3243 C   0  0  0  0  0  0  0  0  0  0  0  0
   -0.5693   -1.2372   -0.8596 O   0  0  0  0  0  0  0  0  0  0  0  0
   -0.6687    0.3894    0.7654 O   0  0  0  0  0  0  0  0  0  0  0  0
    0.5636   -0.0848    1.3219 C   0  0  0  0  0  0  0  0  0  0  0  0
    1.7006    0.7783    0.9065 C   0  0  0  0  0  0  0  0  0  0  0  0
    2.1754    1.9006    1.5529 C   0  0  0  0  0  0  0  0  0  0  0  0
    3.2274    2.4366    0.8851 O   0  0  0  0  0  0  0  0  0  0  0  0
    3.4430    1.6574   -0.2133 C   0  0  0  0  0  0  0  0  0  0  0  0
    2.5242    0.6286   -0.2453 C   0  0  0  0  0  0  0  0  0  0  0  0
    4.5615    2.0644   -1.1073 C   0  0  0  0  0  0  0  0  0  0  0  0
    5.6439    1.0144   -1.2129 C   0  0  0  0  0  0  0  0  0  0  0  0
    5.7833    0.2441   -2.3770 C   0  0  0  0  0  0  0  0  0  0  0  0
    6.7781   -0.7309   -2.4634 C   0  0  0  0  0  0  0  0  0  0  0  0
    7.6394   -0.9479   -1.3887 C   0  0  0  0  0  0  0  0  0  0  0  0
    7.5081   -0.1913   -0.2254 C   0  0  0  0  0  0  0  0  0  0  0  0
    6.5154    0.7848   -0.1369 C   0  0  0  0  0  0  0  0  0  0  0  0
   -4.9815   -0.9347    3.2551 C   0  0  0  0  0  0  0  0  0  0  0  0
  1  2  1  0
  2  3  2  3
  4  3  1  1
  4  5  1  0
  5  6  1  0
  6  7  1  0
  6  8  1  0
  5  9  1  1
  9 10  2  0
  9 11  1  0
 11 12  1  0
 12 13  1  0
 13 14  2  0
 14 15  1  0
 15 16  1  0
 16 17  2  0
 16 18  1  0
 18 19  1  0
 19 20  2  0
 20 21  1  0
 21 22  2  0
 22 23  1  0
 23 24  2  0
  2 25  1  0
  6  4  1  0
 17 13  1  0
 24 19  1  0
M  END
