
     RDKit          3D

 25 27  0  0  0  0  0  0  0  0999 V2000
   -4.8715    0.5837   -1.0468 C   0  0  0  0  0  0  0  0  0  0  0  0
   -3.8767    1.2286   -0.0583 C   0  0  0  0  0  0  0  0  0  0  0  0
   -4.3610    0.9404    1.3707 C   0  0  0  0  0  0  0  0  0  0  0  0
   -3.9408    2.7612   -0.2693 C   0  0  0  0  0  0  0  0  0  0  0  0
   -2.4028    0.7475   -0.3178 C   0  0  2  0  0  0  0  0  0  0  0  0
   -2.0860    1.1069   -1.6844 O   0  0  0  0  0  0  0  0  0  0  0  0
   -2.1083   -0.7715   -0.1048 C   0  0  1  0  0  0  0  0  0  0  0  0
   -0.9990   -1.2502   -0.9069 O   0  0  0  0  0  0  0  0  0  0  0  0
    0.3043   -0.9356   -0.6687 C   0  0  0  0  0  0  0  0  0  0  0  0
    0.8019   -0.0555    0.2833 C   0  0  0  0  0  0  0  0  0  0  0  0
    2.1825    0.1691    0.3868 C   0  0  0  0  0  0  0  0  0  0  0  0
    3.0961   -0.4746   -0.4609 C   0  0  0  0  0  0  0  0  0  0  0  0
    4.5435   -0.2342   -0.3446 C   0  0  0  0  0  0  0  0  0  0  0  0
    5.3049    0.1571   -1.4586 C   0  0  0  0  0  0  0  0  0  0  0  0
    6.6792    0.3865   -1.3483 C   0  0  0  0  0  0  0  0  0  0  0  0
    7.3163    0.2269   -0.1205 C   0  0  0  0  0  0  0  0  0  0  0  0
    6.5808   -0.1611    0.9964 C   0  0  0  0  0  0  0  0  0  0  0  0
    5.2065   -0.3888    0.8845 C   0  0  0  0  0  0  0  0  0  0  0  0
    2.5811   -1.3549   -1.4207 C   0  0  0  0  0  0  0  0  0  0  0  0
    1.2043   -1.5800   -1.5214 C   0  0  0  0  0  0  0  0  0  0  0  0
   -1.9930   -1.2784    1.2529 N   0  0  0  0  0  0  0  0  0  0  0  0
   -2.1369   -2.5781    1.6423 C   0  0  0  0  0  0  0  0  0  0  0  0
   -1.9926   -2.6693    2.9436 N   0  0  0  0  0  0  0  0  0  0  0  0
   -1.7376   -1.3819    3.3151 C   0  0  0  0  0  0  0  0  0  0  0  0
   -1.7305   -0.4915    2.3193 N   0  0  0  0  0  0  0  0  0  0  0  0
  1  2  1  0
  2  3  1  0
  2  4  1  0
  2  5  1  0
  5  6  1  6
  5  7  1  0
  7  8  1  6
  8  9  1  0
  9 10  2  0
 10 11  1  0
 11 12  2  0
 12 13  1  0
 13 14  2  0
 14 15  1  0
 15 16  2  0
 16 17  1  0
 17 18  2  0
 12 19  1  0
 19 20  2  0
  7 21  1  0
 21 22  1  0
 22 23  2  0
 23 24  1  0
 24 25  2  0
 20  9  1  0
 25 21  1  0
 18 13  1  0
M  END
