
     RDKit          3D

 19 18  0  0  0  0  0  0  0  0999 V2000
   -4.5280   -1.0593    2.9735 C   0  0  0  0  0  0  0  0  0  0  0  0
   -4.2920   -0.8087    1.4964 C   0  0  0  0  0  0  0  0  0  0  0  0
   -3.0138   -1.3223    1.0929 O   0  0  0  0  0  0  0  0  0  0  0  0
   -1.9444   -0.5100    1.3203 C   0  0  0  0  0  0  0  0  0  0  0  0
   -1.9864    0.5775    1.8767 O   0  0  0  0  0  0  0  0  0  0  0  0
   -0.6916   -1.1618    0.7890 C   0  0  0  0  0  0  0  0  0  0  0  0
    0.5254   -0.2764    1.0508 C   0  0  1  0  0  0  0  0  0  0  0  0
    2.0778   -1.1796    0.6884 S   0  0  0  0  0  0  0  0  0  0  0  0
    2.4408   -0.9901   -1.3843 P   0  0  0  0  0  5  0  0  0  0  0  0
    1.1512   -1.7544   -2.6322 S   0  0  0  0  0  0  0  0  0  0  0  0
    3.9472   -1.5499   -1.6502 O   0  0  0  0  0  0  0  0  0  0  0  0
    4.2178   -2.9265   -1.4665 C   0  0  0  0  0  0  0  0  0  0  0  0
    2.6855    0.5814   -1.7153 O   0  0  0  0  0  0  0  0  0  0  0  0
    3.7993    1.2526   -1.1606 C   0  0  0  0  0  0  0  0  0  0  0  0
    0.5251    1.0631    0.3235 C   0  0  0  0  0  0  0  0  0  0  0  0
    1.2481    1.9995    0.6464 O   0  0  0  0  0  0  0  0  0  0  0  0
   -0.3176    1.0618   -0.7439 O   0  0  0  0  0  0  0  0  0  0  0  0
   -0.3751    2.2769   -1.5077 C   0  0  0  0  0  0  0  0  0  0  0  0
   -1.4328    3.1956   -0.9240 C   0  0  0  0  0  0  0  0  0  0  0  0
  1  2  1  0
  2  3  1  0
  3  4  1  0
  4  5  2  0
  4  6  1  0
  7  6  1  6
  7  8  1  0
  8  9  1  0
  9 10  2  0
  9 11  1  0
 11 12  1  0
  9 13  1  0
 13 14  1  0
  7 15  1  0
 15 16  2  0
 15 17  1  0
 17 18  1  0
 18 19  1  0
M  END
