
     RDKit          3D

 21 22  0  0  0  0  0  0  0  0999 V2000
   -2.6794    2.6568   -1.0361 C   0  0  0  0  0  0  0  0  0  0  0  0
   -2.6650    2.0024    0.3302 C   0  0  0  0  0  0  0  0  0  0  0  0
   -1.3156    1.7521    0.6951 O   0  0  0  0  0  0  0  0  0  0  0  0
   -1.0018    0.6250    1.8317 P   0  0  2  0  0  5  0  0  0  0  0  0
   -1.9355    0.9764    3.5147 S   0  0  0  0  0  0  0  0  0  0  0  0
    0.6101    0.8114    2.0190 O   0  0  0  0  0  0  0  0  0  0  0  0
    1.4968    0.6682    0.9912 C   0  0  0  0  0  0  0  0  0  0  0  0
    2.2645   -0.4942    0.9323 C   0  0  0  0  0  0  0  0  0  0  0  0
    3.1907   -0.6618   -0.0990 C   0  0  0  0  0  0  0  0  0  0  0  0
    3.3497    0.3523   -1.0540 C   0  0  0  0  0  0  0  0  0  0  0  0
    4.3190    0.1801   -2.1437 N   0  0  0  0  0  4  0  0  0  0  0  0
    4.9889   -0.8622   -2.1601 O   0  0  0  0  0  0  0  0  0  0  0  0
    4.4054    1.0851   -2.9859 O   0  0  0  0  0  1  0  0  0  0  0  0
    2.5944    1.5315   -0.9759 C   0  0  0  0  0  0  0  0  0  0  0  0
    1.6701    1.6889    0.0590 C   0  0  0  0  0  0  0  0  0  0  0  0
   -1.1865   -0.9577    1.0035 C   0  0  0  0  0  0  0  0  0  0  0  0
   -1.1086   -1.0683   -0.3951 C   0  0  0  0  0  0  0  0  0  0  0  0
   -1.2363   -2.3079   -1.0236 C   0  0  0  0  0  0  0  0  0  0  0  0
   -1.4421   -3.4561   -0.2632 C   0  0  0  0  0  0  0  0  0  0  0  0
   -1.5176   -3.3670    1.1246 C   0  0  0  0  0  0  0  0  0  0  0  0
   -1.3884   -2.1275    1.7540 C   0  0  0  0  0  0  0  0  0  0  0  0
  1  2  1  0
  2  3  1  0
  4  3  1  6
  4  5  2  0
  4  6  1  0
  6  7  1  0
  7  8  2  0
  8  9  1  0
  9 10  2  0
 10 11  1  0
 11 12  2  0
 11 13  1  0
 10 14  1  0
 14 15  2  0
  4 16  1  0
 16 17  2  0
 17 18  1  0
 18 19  2  0
 19 20  1  0
 20 21  2  0
 15  7  1  0
 21 16  1  0
M  CHG  2  11   1  13  -1
M  END
