
     RDKit          3D

 15 16  0  0  0  0  0  0  0  0999 V2000
   -3.8975   -0.4432    1.6389 C   0  0  0  0  0  0  0  0  0  0  0  0
   -2.5816    0.0631    1.6209 O   0  0  0  0  0  0  0  0  0  0  0  0
   -1.6712   -0.2329    0.3202 P   0  0  0  0  0  5  0  0  0  0  0  0
   -1.6879   -1.6634   -0.1241 O   0  0  0  0  0  0  0  0  0  0  0  0
   -2.2127    0.8447   -0.7516 O   0  0  0  0  0  0  0  0  0  0  0  0
   -3.1084    0.3820   -1.7403 C   0  0  0  0  0  0  0  0  0  0  0  0
   -0.2416    0.3573    0.7813 O   0  0  0  0  0  0  0  0  0  0  0  0
    0.8253    0.4266    0.0803 C   0  0  0  0  0  0  0  0  0  0  0  0
    1.2376    0.1356   -1.1769 C   0  0  0  0  0  0  0  0  0  0  0  0
    0.4410   -0.5410   -2.6100 Cl  0  0  0  0  0  0  0  0  0  0  0  0
    2.6598    0.6069   -0.9477 C   0  0  2  0  0  0  0  0  0  0  0  0
    3.6735   -0.4649   -0.8247 C   0  0  0  0  0  0  0  0  0  0  0  0
    3.8971   -0.7495    0.4640 C   0  0  0  0  0  0  0  0  0  0  0  0
    3.0642    0.0705    1.4069 C   0  0  0  0  0  0  0  0  0  0  0  0
    2.2078    0.9544    0.4864 C   0  0  2  0  0  0  0  0  0  0  0  0
  1  2  1  0
  2  3  1  0
  3  4  2  0
  3  5  1  0
  5  6  1  0
  3  7  1  0
  7  8  1  0
  8  9  2  0
  9 10  1  0
  9 11  1  0
 11 12  1  1
 12 13  2  0
 13 14  1  0
 15 14  1  1
 15  8  1  0
 15 11  1  0
M  END
