
     RDKit          3D

 27 29  0  0  0  0  0  0  0  0999 V2000
    2.2945    1.5111   -1.1590 C   0  0  0  0  0  0  0  0  0  0  0  0
    2.2609    0.0667   -0.6329 C   0  0  1  0  0  0  0  0  0  0  0  0
    2.7897   -0.7765   -1.6847 O   0  0  0  0  0  0  0  0  0  0  0  0
    3.1701   -0.1622    0.5985 C   0  0  0  0  0  0  0  0  0  0  0  0
    4.5898   -0.1343    0.3057 N   0  0  0  0  0  0  0  0  0  0  0  0
    5.4211   -1.1927    0.1095 C   0  0  0  0  0  0  0  0  0  0  0  0
    6.6368   -0.7553   -0.1250 N   0  0  0  0  0  0  0  0  0  0  0  0
    6.4968    0.6006   -0.0459 C   0  0  0  0  0  0  0  0  0  0  0  0
    5.2569    1.0299    0.2054 N   0  0  0  0  0  0  0  0  0  0  0  0
    0.7775   -0.3538   -0.4230 C   0  0  0  0  0  0  0  0  0  0  0  0
    0.1504   -1.0640   -1.4822 C   0  0  0  0  0  0  0  0  0  0  0  0
   -1.1782   -1.4891   -1.4260 C   0  0  0  0  0  0  0  0  0  0  0  0
   -1.9431   -1.1959   -0.3125 C   0  0  0  0  0  0  0  0  0  0  0  0
   -3.2336   -1.6676   -0.2868 O   0  0  0  0  0  0  0  0  0  0  0  0
   -4.2199   -0.7822    0.0843 C   0  0  0  0  0  0  0  0  0  0  0  0
   -5.1736   -1.2420    0.9940 C   0  0  0  0  0  0  0  0  0  0  0  0
   -6.2188   -0.4047    1.3890 C   0  0  0  0  0  0  0  0  0  0  0  0
   -6.3122    0.8819    0.8589 C   0  0  0  0  0  0  0  0  0  0  0  0
   -7.6004    1.9136    1.3445 Cl  0  0  0  0  0  0  0  0  0  0  0  0
   -5.3738    1.3363   -0.0679 C   0  0  0  0  0  0  0  0  0  0  0  0
   -4.3279    0.4995   -0.4637 C   0  0  0  0  0  0  0  0  0  0  0  0
   -1.3700   -0.5067    0.7538 C   0  0  0  0  0  0  0  0  0  0  0  0
   -0.0252   -0.0558    0.7152 C   0  0  0  0  0  0  0  0  0  0  0  0
    0.4449    0.6999    1.9409 C   0  0  0  0  0  0  0  0  0  0  0  0
    1.1339    1.8317    1.6421 F   0  0  0  0  0  0  0  0  0  0  0  0
   -0.5647    1.1021    2.7633 F   0  0  0  0  0  0  0  0  0  0  0  0
    1.2688   -0.0551    2.7187 F   0  0  0  0  0  0  0  0  0  0  0  0
  2  1  1  6
  2  3  1  0
  2  4  1  0
  4  5  1  0
  5  6  1  0
  6  7  2  0
  7  8  1  0
  8  9  2  0
  2 10  1  0
 10 11  2  0
 11 12  1  0
 12 13  2  0
 13 14  1  0
 14 15  1  0
 15 16  2  0
 16 17  1  0
 17 18  2  0
 18 19  1  0
 18 20  1  0
 20 21  2  0
 13 22  1  0
 22 23  2  0
 23 24  1  0
 24 25  1  0
 24 26  1  0
 24 27  1  0
  9  5  1  0
 23 10  1  0
 21 15  1  0
M  END
