
     RDKit          3D

 26 27  0  0  0  0  0  0  0  0999 V2000
    3.6553    3.9254   -0.4915 N   0  0  0  0  0  0  0  0  0  0  0  0
    3.0262    2.9752   -0.2635 C   0  0  0  0  0  0  0  0  0  0  0  0
    2.2160    1.8194    0.0035 C   0  0  0  0  0  0  0  0  0  0  0  0
    0.9173    1.8691   -0.3168 N   0  0  0  0  0  0  0  0  0  0  0  0
    0.4193    0.6658    0.0557 N   0  0  0  0  0  0  0  0  0  0  0  0
   -0.9410    0.3707   -0.1914 C   0  0  0  0  0  0  0  0  0  0  0  0
   -1.9409    1.2328    0.2884 C   0  0  0  0  0  0  0  0  0  0  0  0
   -1.6228    2.5880    1.3179 Cl  0  0  0  0  0  0  0  0  0  0  0  0
   -3.2895    0.9625    0.0211 C   0  0  0  0  0  0  0  0  0  0  0  0
   -3.6646   -0.1643   -0.7220 C   0  0  0  0  0  0  0  0  0  0  0  0
   -5.1176   -0.4387   -1.0283 C   0  0  0  0  0  0  0  0  0  0  0  0
   -5.3920   -1.7687   -1.1189 F   0  0  0  0  0  0  0  0  0  0  0  0
   -5.9623    0.0537   -0.0825 F   0  0  0  0  0  0  0  0  0  0  0  0
   -5.5060    0.1099   -2.2094 F   0  0  0  0  0  0  0  0  0  0  0  0
   -2.6600   -1.0105   -1.2114 C   0  0  0  0  0  0  0  0  0  0  0  0
   -1.3076   -0.7489   -0.9536 C   0  0  0  0  0  0  0  0  0  0  0  0
   -0.1686   -1.8079   -1.7126 Cl  0  0  0  0  0  0  0  0  0  0  0  0
    1.3972   -0.1471    0.6439 C   0  0  0  0  0  0  0  0  0  0  0  0
    1.1400   -1.3668    1.1901 N   0  0  0  0  0  0  0  0  0  0  0  0
    2.5627    0.5893    0.5868 C   0  0  0  0  0  0  0  0  0  0  0  0
    4.1624    0.1123    1.2189 S   0  0  0  0  0  4  0  0  0  0  0  0
    5.1319    1.1736    0.7856 O   0  0  0  0  0  0  0  0  0  0  0  0
    4.3965   -1.3894    0.2344 C   0  0  0  0  0  0  0  0  0  0  0  0
    4.1131   -1.2112   -1.0803 F   0  0  0  0  0  0  0  0  0  0  0  0
    5.6706   -1.8518    0.3109 F   0  0  0  0  0  0  0  0  0  0  0  0
    3.5998   -2.4016    0.6793 F   0  0  0  0  0  0  0  0  0  0  0  0
  1  2  3  0
  2  3  1  0
  3  4  2  0
  4  5  1  0
  5  6  1  0
  6  7  2  0
  7  8  1  0
  7  9  1  0
  9 10  2  0
 10 11  1  0
 11 12  1  0
 11 13  1  0
 11 14  1  0
 10 15  1  0
 15 16  2  0
 16 17  1  0
  5 18  1  0
 18 19  1  0
 18 20  2  0
 20 21  1  0
 21 22  2  0
 21 23  1  6
 23 24  1  0
 23 25  1  0
 23 26  1  0
 20  3  1  0
 16  6  1  0
M  END
