
     RDKit          3D

 15 16  0  0  0  0  0  0  0  0999 V2000
   -3.6338    0.2761    1.5110 C   0  0  0  0  0  0  0  0  0  0  0  0
   -2.4555   -0.2156    0.9060 O   0  0  0  0  0  0  0  0  0  0  0  0
   -1.9824    0.5321   -0.4436 P   0  0  0  0  0  5  0  0  0  0  0  0
   -2.0734    2.0269   -0.4101 O   0  0  0  0  0  0  0  0  0  0  0  0
   -2.9080   -0.1484   -1.5793 O   0  0  0  0  0  0  0  0  0  0  0  0
   -2.8574   -1.5505   -1.7397 C   0  0  0  0  0  0  0  0  0  0  0  0
   -0.5124   -0.0719   -0.7415 O   0  0  0  0  0  0  0  0  0  0  0  0
    0.5427    0.1979   -0.0744 C   0  0  0  0  0  0  0  0  0  0  0  0
    0.9014    0.7326    1.1521 C   0  0  0  0  0  0  0  0  0  0  0  0
    0.0077    1.4919    2.4760 Cl  0  0  0  0  0  0  0  0  0  0  0  0
    2.2755    0.9694    0.5768 C   0  0  1  0  0  0  0  0  0  0  0  0
    3.6470    0.6906    1.0111 C   0  0  0  0  0  0  0  0  0  0  0  0
    4.2113    0.0274   -0.0195 C   0  0  0  0  0  0  0  0  0  0  0  0
    3.1471   -0.3624   -1.0510 C   0  0  0  0  0  0  0  0  0  0  0  0
    1.9386   -0.4006   -0.1308 C   0  0  2  0  0  0  0  0  0  0  0  0
  1  2  1  0
  2  3  1  0
  3  4  2  0
  3  5  1  0
  5  6  1  0
  3  7  1  0
  7  8  1  0
  8  9  2  0
  9 10  1  0
  9 11  1  0
 11 12  1  1
 12 13  2  0
 13 14  1  0
 15 14  1  6
 15  8  1  0
 15 11  1  0
M  END
