
     RDKit          3D

 26 27  0  0  0  0  0  0  0  0999 V2000
    3.9711   -0.8559   -3.4233 N   0  0  0  0  0  0  0  0  0  0  0  0
    3.1918   -0.5778   -2.6086 C   0  0  0  0  0  0  0  0  0  0  0  0
    2.2979   -0.1911   -1.5577 C   0  0  0  0  0  0  0  0  0  0  0  0
    0.9920   -0.4542   -1.6695 N   0  0  0  0  0  0  0  0  0  0  0  0
    0.4367    0.0672   -0.5402 N   0  0  0  0  0  0  0  0  0  0  0  0
   -0.9586   -0.0280   -0.3367 C   0  0  0  0  0  0  0  0  0  0  0  0
   -1.7334    1.1183   -0.1048 C   0  0  0  0  0  0  0  0  0  0  0  0
   -1.1013    2.7287   -0.1454 Cl  0  0  0  0  0  0  0  0  0  0  0  0
   -3.1182    1.0051    0.0802 C   0  0  0  0  0  0  0  0  0  0  0  0
   -3.7528   -0.2435    0.0334 C   0  0  0  0  0  0  0  0  0  0  0  0
   -5.2485   -0.3534    0.2063 C   0  0  0  0  0  0  0  0  0  0  0  0
   -5.7528    0.5942    1.0429 F   0  0  0  0  0  0  0  0  0  0  0  0
   -5.9125   -0.2109   -0.9712 F   0  0  0  0  0  0  0  0  0  0  0  0
   -5.6375   -1.5516    0.7200 F   0  0  0  0  0  0  0  0  0  0  0  0
   -2.9758   -1.3813   -0.2196 C   0  0  0  0  0  0  0  0  0  0  0  0
   -1.5900   -1.2814   -0.4025 C   0  0  0  0  0  0  0  0  0  0  0  0
   -0.7366   -2.7770   -0.5888 Cl  0  0  0  0  0  0  0  0  0  0  0  0
    1.4021    0.6410    0.2925 C   0  0  0  0  0  0  0  0  0  0  0  0
    1.1582    1.1801    1.5172 N   0  0  0  0  0  0  0  0  0  0  0  0
    2.6010    0.4673   -0.3599 C   0  0  0  0  0  0  0  0  0  0  0  0
    4.2168    0.9799    0.2027 S   0  0  0  0  0  4  0  0  0  0  0  0
    3.9876    2.0026    1.2845 O   0  0  0  0  0  0  0  0  0  0  0  0
    4.7093   -0.6061    0.9390 C   0  0  0  0  0  0  0  0  0  0  0  0
    4.7302   -1.5925    0.0048 F   0  0  0  0  0  0  0  0  0  0  0  0
    5.9569   -0.5455    1.4695 F   0  0  0  0  0  0  0  0  0  0  0  0
    3.8734   -1.0148    1.9253 F   0  0  0  0  0  0  0  0  0  0  0  0
  1  2  3  0
  2  3  1  0
  3  4  2  0
  4  5  1  0
  5  6  1  0
  6  7  2  0
  7  8  1  0
  7  9  1  0
  9 10  2  0
 10 11  1  0
 11 12  1  0
 11 13  1  0
 11 14  1  0
 10 15  1  0
 15 16  2  0
 16 17  1  0
  5 18  1  0
 18 19  1  0
 18 20  2  0
 20 21  1  0
 21 22  2  0
 21 23  1  1
 23 24  1  0
 23 25  1  0
 23 26  1  0
 20  3  1  0
 16  6  1  0
M  END
