
     RDKit          3D

 25 27  0  0  0  0  0  0  0  0999 V2000
   -3.9751   -0.1587   -1.4203 C   0  0  0  0  0  0  0  0  0  0  0  0
   -3.9385    0.8854   -0.2898 C   0  0  0  0  0  0  0  0  0  0  0  0
   -5.3932    1.3308   -0.0069 C   0  0  0  0  0  0  0  0  0  0  0  0
   -3.1597    2.1198   -0.7789 C   0  0  0  0  0  0  0  0  0  0  0  0
   -3.3359    0.2718    1.0189 C   0  0  2  0  0  0  0  0  0  0  0  0
   -3.4217    1.2630    2.0609 O   0  0  0  0  0  0  0  0  0  0  0  0
   -1.8868   -0.3016    0.8988 C   0  0  1  0  0  0  0  0  0  0  0  0
   -0.9410    0.7700    0.7533 O   0  0  0  0  0  0  0  0  0  0  0  0
    0.3034    0.4589    0.2835 C   0  0  0  0  0  0  0  0  0  0  0  0
    1.3529    1.1843    0.8554 C   0  0  0  0  0  0  0  0  0  0  0  0
    2.6750    0.9630    0.4560 C   0  0  0  0  0  0  0  0  0  0  0  0
    2.9770    0.0184   -0.5387 C   0  0  0  0  0  0  0  0  0  0  0  0
    4.3704   -0.2247   -0.9570 C   0  0  0  0  0  0  0  0  0  0  0  0
    4.7288   -0.2525   -2.3177 C   0  0  0  0  0  0  0  0  0  0  0  0
    6.0481   -0.4846   -2.7144 C   0  0  0  0  0  0  0  0  0  0  0  0
    7.0353   -0.6962   -1.7549 C   0  0  0  0  0  0  0  0  0  0  0  0
    6.7059   -0.6722   -0.4001 C   0  0  0  0  0  0  0  0  0  0  0  0
    5.3853   -0.4383   -0.0069 C   0  0  0  0  0  0  0  0  0  0  0  0
    1.9014   -0.6811   -1.1271 C   0  0  0  0  0  0  0  0  0  0  0  0
    0.5750   -0.4582   -0.7303 C   0  0  0  0  0  0  0  0  0  0  0  0
   -1.5331   -1.0835    2.0896 N   0  0  0  0  0  0  0  0  0  0  0  0
   -0.8871   -2.2819    2.1267 C   0  0  0  0  0  0  0  0  0  0  0  0
   -0.7928   -2.6969    3.3683 N   0  0  0  0  0  0  0  0  0  0  0  0
   -1.3905   -1.6907    4.0745 C   0  0  0  0  0  0  0  0  0  0  0  0
   -1.8651   -0.6794    3.3409 N   0  0  0  0  0  0  0  0  0  0  0  0
  1  2  1  0
  2  3  1  0
  2  4  1  0
  2  5  1  0
  5  6  1  1
  5  7  1  0
  7  8  1  1
  8  9  1  0
  9 10  2  0
 10 11  1  0
 11 12  2  0
 12 13  1  0
 13 14  2  0
 14 15  1  0
 15 16  2  0
 16 17  1  0
 17 18  2  0
 12 19  1  0
 19 20  2  0
  7 21  1  0
 21 22  1  0
 22 23  2  0
 23 24  1  0
 24 25  2  0
 20  9  1  0
 25 21  1  0
 18 13  1  0
M  END
