
     RDKit          3D

 26 27  0  0  0  0  0  0  0  0999 V2000
   -3.7133    2.6651    2.4930 N   0  0  0  0  0  0  0  0  0  0  0  0
   -2.9879    2.1013    1.7829 C   0  0  0  0  0  0  0  0  0  0  0  0
   -2.1625    1.3938    0.8492 C   0  0  0  0  0  0  0  0  0  0  0  0
   -0.8632    1.2250    1.1145 N   0  0  0  0  0  0  0  0  0  0  0  0
   -0.3742    0.5579    0.0327 N   0  0  0  0  0  0  0  0  0  0  0  0
    0.9905    0.1928   -0.0090 C   0  0  0  0  0  0  0  0  0  0  0  0
    1.9821    1.1680    0.1893 C   0  0  0  0  0  0  0  0  0  0  0  0
    1.6463    2.8594    0.3496 Cl  0  0  0  0  0  0  0  0  0  0  0  0
    3.3364    0.8081    0.1674 C   0  0  0  0  0  0  0  0  0  0  0  0
    3.7251   -0.5217   -0.0399 C   0  0  0  0  0  0  0  0  0  0  0  0
    5.1858   -0.9009   -0.0864 C   0  0  0  0  0  0  0  0  0  0  0  0
    5.4195   -2.1581    0.3786 F   0  0  0  0  0  0  0  0  0  0  0  0
    5.6805   -0.8681   -1.3526 F   0  0  0  0  0  0  0  0  0  0  0  0
    5.9752   -0.0746    0.6514 F   0  0  0  0  0  0  0  0  0  0  0  0
    2.7300   -1.4885   -0.2374 C   0  0  0  0  0  0  0  0  0  0  0  0
    1.3722   -1.1417   -0.2141 C   0  0  0  0  0  0  0  0  0  0  0  0
    0.2508   -2.4546   -0.3310 Cl  0  0  0  0  0  0  0  0  0  0  0  0
   -1.3646    0.3356   -0.9281 C   0  0  0  0  0  0  0  0  0  0  0  0
   -1.1495   -0.2048   -2.1529 N   0  0  0  0  0  0  0  0  0  0  0  0
   -2.5254    0.8367   -0.3843 C   0  0  0  0  0  0  0  0  0  0  0  0
   -4.1555    0.8264   -1.1197 S   0  0  0  0  0  4  0  0  0  0  0  0
   -3.9785    0.4239   -2.5602 O   0  0  0  0  0  0  0  0  0  0  0  0
   -4.8163   -0.5755   -0.1714 C   0  0  0  0  0  0  0  0  0  0  0  0
   -4.0879   -1.7082   -0.3369 F   0  0  0  0  0  0  0  0  0  0  0  0
   -6.0942   -0.8640   -0.5233 F   0  0  0  0  0  0  0  0  0  0  0  0
   -4.8276   -0.3070    1.1599 F   0  0  0  0  0  0  0  0  0  0  0  0
  1  2  3  0
  2  3  1  0
  3  4  2  0
  4  5  1  0
  5  6  1  0
  6  7  2  0
  7  8  1  0
  7  9  1  0
  9 10  2  0
 10 11  1  0
 11 12  1  0
 11 13  1  0
 11 14  1  0
 10 15  1  0
 15 16  2  0
 16 17  1  0
  5 18  1  0
 18 19  1  0
 18 20  2  0
 20 21  1  0
 21 22  2  0
 21 23  1  1
 23 24  1  0
 23 25  1  0
 23 26  1  0
 20  3  1  0
 16  6  1  0
M  END
