
     RDKit          3D

 10 11  0  0  0  0  0  0  0  0999 V2000
   -1.6415    1.6042   -0.6175 C   0  0  0  0  0  0  0  0  0  0  0  0
   -1.5512    0.4656    0.3995 C   0  0  0  0  0  0  0  0  0  0  0  0
   -2.7116   -0.5137    0.2219 C   0  0  0  0  0  0  0  0  0  0  0  0
   -0.2147   -0.2561    0.3450 C   0  0  1  0  0  0  0  0  0  0  0  0
    0.1549   -1.0049   -0.9227 C   0  0  0  0  0  0  0  0  0  0  0  0
    1.6902   -0.9720   -1.0279 C   0  0  0  0  0  0  0  0  0  0  0  0
    2.1285    0.0948   -0.0499 C   0  0  0  0  0  0  0  0  0  0  0  0
    3.3390    0.6656   -0.0772 C   0  0  0  0  0  0  0  0  0  0  0  0
    1.0324    0.4126    0.8751 C   0  0  2  0  0  0  0  0  0  0  0  0
    0.3957   -0.6994    1.6608 C   0  0  0  0  0  0  0  0  0  0  0  0
  1  2  1  0
  2  3  1  0
  4  2  1  1
  4  5  1  0
  5  6  1  0
  6  7  1  0
  7  8  2  0
  7  9  1  0
  9 10  1  1
  9  4  1  0
 10  4  1  0
M  END
