
     RDKit          3D

 26 27  0  0  0  0  0  0  0  0999 V2000
   -3.6258    5.3166   -3.1396 C   0  0  0  0  0  0  0  0  0  0  0  0
   -4.3242    3.9665   -3.1686 C   0  0  0  0  0  0  0  0  0  0  0  0
   -3.6095    2.9481   -2.2847 C   0  0  0  0  0  0  0  0  0  0  0  0
   -4.3107    1.5933   -2.3104 C   0  0  0  0  0  0  0  0  0  0  0  0
   -3.6414    0.6769   -1.4291 O   0  0  0  0  0  0  0  0  0  0  0  0
   -2.5934   -0.0150   -1.9734 C   0  0  0  0  0  0  0  0  0  0  0  0
   -2.2010    0.1171   -3.1252 O   0  0  0  0  0  0  0  0  0  0  0  0
   -1.9795   -0.9383   -0.9151 C   0  0  1  0  0  0  0  0  0  0  0  0
   -2.9953   -2.0076   -0.5265 C   0  0  0  0  0  0  0  0  0  0  0  0
   -0.8262   -1.5679   -1.4775 O   0  0  0  0  0  0  0  0  0  0  0  0
    0.2270   -1.8764   -0.6651 C   0  0  0  0  0  0  0  0  0  0  0  0
    1.3853   -2.2638   -1.3468 C   0  0  0  0  0  0  0  0  0  0  0  0
    2.5414   -2.6147   -0.6478 C   0  0  0  0  0  0  0  0  0  0  0  0
    2.5449   -2.5660    0.7431 C   0  0  0  0  0  0  0  0  0  0  0  0
    3.6973   -2.9463    1.3894 O   0  0  0  0  0  0  0  0  0  0  0  0
    4.2001   -2.0759    2.3291 C   0  0  0  0  0  0  0  0  0  0  0  0
    4.3512   -0.7077    2.0845 C   0  0  0  0  0  0  0  0  0  0  0  0
    4.9071    0.1164    3.0684 C   0  0  0  0  0  0  0  0  0  0  0  0
    5.3259   -0.4264    4.2908 C   0  0  0  0  0  0  0  0  0  0  0  0
    5.8944    0.4218    5.2970 C   0  0  0  0  0  0  0  0  0  0  0  0
    6.3516    1.1097    6.1117 N   0  0  0  0  0  0  0  0  0  0  0  0
    5.1926   -1.7977    4.5245 C   0  0  0  0  0  0  0  0  0  0  0  0
    4.6381   -2.6112    3.5401 C   0  0  0  0  0  0  0  0  0  0  0  0
    4.5199   -3.9249    3.7796 F   0  0  0  0  0  0  0  0  0  0  0  0
    1.3853   -2.2131    1.4357 C   0  0  0  0  0  0  0  0  0  0  0  0
    0.2280   -1.8641    0.7305 C   0  0  0  0  0  0  0  0  0  0  0  0
  1  2  1  0
  2  3  1  0
  3  4  1  0
  4  5  1  0
  5  6  1  0
  6  7  2  0
  6  8  1  0
  8  9  1  6
  8 10  1  0
 10 11  1  0
 11 12  2  0
 12 13  1  0
 13 14  2  0
 14 15  1  0
 15 16  1  0
 16 17  2  0
 17 18  1  0
 18 19  2  0
 19 20  1  0
 20 21  3  0
 19 22  1  0
 22 23  2  0
 23 24  1  0
 14 25  1  0
 25 26  2  0
 26 11  1  0
 23 16  1  0
M  END
