
     RDKit          3D

 19 20  0  0  0  0  0  0  0  0999 V2000
   -1.6575   -0.2553    2.5410 O   0  0  0  0  0  0  0  0  0  0  0  0
   -1.7316    0.1962    1.4078 C   0  0  0  0  0  0  0  0  0  0  0  0
   -2.9809    0.8594    0.8499 C   0  0  1  0  0  0  0  0  0  0  0  0
   -3.0243    2.5403    1.4465 Cl  0  0  0  0  0  0  0  0  0  0  0  0
   -2.7579    0.8117   -0.6601 C   0  0  2  0  0  0  0  0  0  0  0  0
   -3.2474   -0.5044   -1.2750 C   0  0  0  0  0  0  0  0  0  0  0  0
   -5.0248   -0.5999   -1.2555 Cl  0  0  0  0  0  0  0  0  0  0  0  0
   -1.2407    0.9131   -0.7717 C   0  0  0  0  0  0  0  0  0  0  0  0
   -0.7400    0.2404    0.4065 N   0  0  0  0  0  0  0  0  0  0  0  0
    0.6146   -0.1738    0.5417 C   0  0  0  0  0  0  0  0  0  0  0  0
    1.0601   -0.8942    1.6562 C   0  0  0  0  0  0  0  0  0  0  0  0
    2.3926   -1.3047    1.7742 C   0  0  0  0  0  0  0  0  0  0  0  0
    3.3122   -0.9994    0.7767 C   0  0  0  0  0  0  0  0  0  0  0  0
    2.9068   -0.2722   -0.3463 C   0  0  0  0  0  0  0  0  0  0  0  0
    3.8844    0.0550   -1.4476 C   0  0  0  0  0  0  0  0  0  0  0  0
    5.1816    0.0735   -1.0348 F   0  0  0  0  0  0  0  0  0  0  0  0
    3.8268   -0.8427   -2.4695 F   0  0  0  0  0  0  0  0  0  0  0  0
    3.6551    1.2744   -2.0112 F   0  0  0  0  0  0  0  0  0  0  0  0
    1.5588    0.1259   -0.4548 C   0  0  0  0  0  0  0  0  0  0  0  0
  1  2  2  0
  2  3  1  0
  3  4  1  1
  3  5  1  0
  5  6  1  1
  6  7  1  0
  5  8  1  0
  8  9  1  0
  9 10  1  0
 10 11  2  0
 11 12  1  0
 12 13  2  0
 13 14  1  0
 14 15  1  0
 15 16  1  0
 15 17  1  0
 15 18  1  0
 14 19  2  0
  9  2  1  0
 19 10  1  0
M  END
