
     RDKit          3D

 10 11  0  0  0  0  0  0  0  0999 V2000
    2.3828    0.5476    0.7054 C   0  0  0  0  0  0  0  0  0  0  0  0
    1.0327    0.2627    0.0196 C   0  0  0  0  0  0  0  0  0  0  0  0
    0.5658   -1.2549    0.0651 C   0  0  2  0  0  0  0  0  0  0  0  0
   -0.5972   -1.6160   -0.8783 C   0  0  0  0  0  0  0  0  0  0  0  0
   -1.8527   -0.7637   -0.5838 C   0  0  0  0  0  0  0  0  0  0  0  0
   -1.5252    0.5131    0.1572 C   0  0  0  0  0  0  0  0  0  0  0  0
   -2.2607    1.6310    0.1025 C   0  0  0  0  0  0  0  0  0  0  0  0
   -0.2412    0.4939    0.9401 C   0  0  1  0  0  0  0  0  0  0  0  0
    0.0397   -0.9456    1.5013 C   0  0  0  0  0  0  0  0  0  0  0  0
    1.0540    0.9469   -1.3533 C   0  0  0  0  0  0  0  0  0  0  0  0
  1  2  1  0
  2  3  1  0
  3  4  1  6
  4  5  1  0
  5  6  1  0
  6  7  2  0
  6  8  1  0
  8  9  1  1
  2 10  1  0
  8  2  1  0
  9  3  1  0
M  END
