
     RDKit          3D

 24 26  0  0  0  0  0  0  0  0999 V2000
   -5.6493   -0.5606    0.6015 C   0  0  0  0  0  0  0  0  0  0  0  0
   -5.0135    0.0681   -0.6073 C   0  0  0  0  0  0  0  0  0  0  0  0
   -5.5822   -0.3801   -1.9263 C   0  0  0  0  0  0  0  0  0  0  0  0
   -4.0119    0.9686   -0.5478 C   0  0  0  0  0  0  0  0  0  0  0  0
   -3.3695    1.5014    0.6623 C   0  0  2  0  0  0  0  0  0  0  0  0
   -1.9228    1.9489    0.6799 C   0  0  2  0  0  0  0  0  0  0  0  0
   -1.0475    1.9296   -0.5131 C   0  0  0  0  0  0  0  0  0  0  0  0
   -1.3477    2.4851   -1.5590 O   0  0  0  0  0  0  0  0  0  0  0  0
    0.1244    1.2951   -0.2614 O   0  0  0  0  0  0  0  0  0  0  0  0
    0.9974    1.2927   -1.3873 C   0  0  0  0  0  0  0  0  0  0  0  0
    2.1974    0.6000   -1.0093 N   0  0  0  0  0  0  0  0  0  0  0  0
    3.2725    1.1914   -0.4288 C   0  0  0  0  0  0  0  0  0  0  0  0
    3.4491    2.3633   -0.1540 O   0  0  0  0  0  0  0  0  0  0  0  0
    4.2420    0.1243   -0.1719 C   0  0  0  0  0  0  0  0  0  0  0  0
    3.7077   -1.0266   -0.5867 C   0  0  0  0  0  0  0  0  0  0  0  0
    4.3709   -2.3492   -0.5098 C   0  0  0  0  0  0  0  0  0  0  0  0
    5.8694   -2.1864   -0.1984 C   0  0  0  0  0  0  0  0  0  0  0  0
    6.1312   -1.1111    0.8692 C   0  0  0  0  0  0  0  0  0  0  0  0
    5.5708    0.2656    0.4670 C   0  0  0  0  0  0  0  0  0  0  0  0
    2.3785   -0.7392   -1.1303 C   0  0  0  0  0  0  0  0  0  0  0  0
    1.6255   -1.5764   -1.5911 O   0  0  0  0  0  0  0  0  0  0  0  0
   -2.3342    0.6789    1.4142 C   0  0  0  0  0  0  0  0  0  0  0  0
   -1.9061   -0.6717    0.8831 C   0  0  0  0  0  0  0  0  0  0  0  0
   -2.3760    0.7329    2.9221 C   0  0  0  0  0  0  0  0  0  0  0  0
  1  2  1  0
  2  3  1  0
  2  4  2  3
  5  4  1  6
  5  6  1  0
  6  7  1  6
  7  8  2  0
  7  9  1  0
  9 10  1  0
 10 11  1  0
 11 12  1  0
 12 13  2  0
 12 14  1  0
 14 15  2  0
 15 16  1  0
 16 17  1  0
 17 18  1  0
 18 19  1  0
 15 20  1  0
 20 21  2  0
  6 22  1  0
 22 23  1  0
 22 24  1  0
 22  5  1  0
 20 11  1  0
 19 14  1  0
M  END
