
     RDKit          3D

 20 21  0  0  0  0  0  0  0  0999 V2000
   -2.7156    3.9024   -0.1467 C   0  0  0  0  0  0  0  0  0  0  0  0
   -1.7049    3.2192    0.7518 C   0  0  0  0  0  0  0  0  0  0  0  0
   -1.8989    1.8165    0.6593 O   0  0  0  0  0  0  0  0  0  0  0  0
   -0.6820    0.8135    1.0831 P   0  0  2  0  0  5  0  0  0  0  0  0
   -0.0936    1.1059    2.9283 S   0  0  0  0  0  0  0  0  0  0  0  0
    0.4098    1.2266   -0.0603 O   0  0  0  0  0  0  0  0  0  0  0  0
    1.5458    0.4933   -0.2524 C   0  0  0  0  0  0  0  0  0  0  0  0
    1.5747   -0.4509   -1.2761 C   0  0  0  0  0  0  0  0  0  0  0  0
    2.7352   -1.1954   -1.4976 C   0  0  0  0  0  0  0  0  0  0  0  0
    3.8692   -0.9794   -0.7060 C   0  0  0  0  0  0  0  0  0  0  0  0
    5.0611   -1.7433   -0.9333 C   0  0  0  0  0  0  0  0  0  0  0  0
    6.0244   -2.3633   -1.1193 N   0  0  0  0  0  0  0  0  0  0  0  0
    3.8371   -0.0093    0.3027 C   0  0  0  0  0  0  0  0  0  0  0  0
    2.6754    0.7344    0.5240 C   0  0  0  0  0  0  0  0  0  0  0  0
   -1.2886   -0.7920    0.5572 C   0  0  0  0  0  0  0  0  0  0  0  0
   -2.2299   -0.9037   -0.4791 C   0  0  0  0  0  0  0  0  0  0  0  0
   -2.6801   -2.1550   -0.9031 C   0  0  0  0  0  0  0  0  0  0  0  0
   -2.1937   -3.3119   -0.2990 C   0  0  0  0  0  0  0  0  0  0  0  0
   -1.2581   -3.2197    0.7288 C   0  0  0  0  0  0  0  0  0  0  0  0
   -0.8076   -1.9688    1.1541 C   0  0  0  0  0  0  0  0  0  0  0  0
  1  2  1  0
  2  3  1  0
  4  3  1  6
  4  5  2  0
  4  6  1  0
  6  7  1  0
  7  8  2  0
  8  9  1  0
  9 10  2  0
 10 11  1  0
 11 12  3  0
 10 13  1  0
 13 14  2  0
  4 15  1  0
 15 16  2  0
 16 17  1  0
 17 18  2  0
 18 19  1  0
 19 20  2  0
 14  7  1  0
 20 15  1  0
M  END
