
     RDKit          3D

 10 11  0  0  0  0  0  0  0  0999 V2000
   -1.3120   -1.0022    1.2450 C   0  0  0  0  0  0  0  0  0  0  0  0
   -0.8170   -0.3462   -0.0514 C   0  0  0  0  0  0  0  0  0  0  0  0
    0.5034   -0.9797   -0.6045 C   0  0  2  0  0  0  0  0  0  0  0  0
    1.6010   -1.0812    0.4790 C   0  0  0  0  0  0  0  0  0  0  0  0
    1.9685    0.3914    0.7396 C   0  0  0  0  0  0  0  0  0  0  0  0
    1.1169    1.1462   -0.2947 C   0  0  1  0  0  0  0  0  0  0  0  0
    1.0860    0.1579   -1.4586 C   0  0  0  0  0  0  0  0  0  0  0  0
   -0.3305    1.0855    0.1613 C   0  0  0  0  0  0  0  0  0  0  0  0
   -1.0380    2.1231    0.6248 C   0  0  0  0  0  0  0  0  0  0  0  0
   -1.9429   -0.4205   -1.0992 C   0  0  0  0  0  0  0  0  0  0  0  0
  1  2  1  0
  2  3  1  0
  3  4  1  1
  4  5  1  0
  6  5  1  1
  6  7  1  0
  6  8  1  0
  8  9  2  0
  2 10  1  0
  8  2  1  0
  7  3  1  0
M  END
