
     RDKit          3D

 23 24  0  0  0  0  0  0  0  0999 V2000
    3.9466   -1.0050   -0.3615 F   0  0  0  0  0  0  0  0  0  0  0  0
    3.5179   -1.9907    0.4756 C   0  0  0  0  0  0  0  0  0  0  0  0
    4.3638   -1.9795    1.5397 F   0  0  0  0  0  0  0  0  0  0  0  0
    2.0684   -1.7492    0.9114 C   0  0  0  0  0  0  0  0  0  0  0  0
    1.6654   -2.7350    1.7532 F   0  0  0  0  0  0  0  0  0  0  0  0
    1.9358   -0.5815    1.5894 F   0  0  0  0  0  0  0  0  0  0  0  0
    1.1519   -1.7644   -0.1898 O   0  0  0  0  0  0  0  0  0  0  0  0
    0.9058   -0.4739   -0.7448 C   0  0  0  0  0  0  0  0  0  0  0  0
   -0.3377    0.1837   -0.1070 C   0  0  2  0  0  0  0  0  0  0  0  0
   -1.6452   -0.5585   -0.4528 C   0  0  0  0  0  0  0  0  0  0  0  0
   -1.8388   -1.7692    0.3197 N   0  0  0  0  0  0  0  0  0  0  0  0
   -1.8022   -3.0564   -0.1157 C   0  0  0  0  0  0  0  0  0  0  0  0
   -2.0670   -3.8647    0.8847 N   0  0  0  0  0  0  0  0  0  0  0  0
   -2.2650   -3.0048    1.9277 C   0  0  0  0  0  0  0  0  0  0  0  0
   -2.1506   -1.7079    1.6272 N   0  0  0  0  0  0  0  0  0  0  0  0
   -0.4060    1.6794   -0.4168 C   0  0  0  0  0  0  0  0  0  0  0  0
   -0.2325    2.5662    0.6670 C   0  0  0  0  0  0  0  0  0  0  0  0
   -0.2746    3.9505    0.4872 C   0  0  0  0  0  0  0  0  0  0  0  0
   -0.4900    4.4737   -0.7813 C   0  0  0  0  0  0  0  0  0  0  0  0
   -0.5421    6.1778   -1.0071 Cl  0  0  0  0  0  0  0  0  0  0  0  0
   -0.6627    3.6255   -1.8697 C   0  0  0  0  0  0  0  0  0  0  0  0
   -0.6208    2.2374   -1.6914 C   0  0  0  0  0  0  0  0  0  0  0  0
   -0.8433    1.2771   -3.1087 Cl  0  0  0  0  0  0  0  0  0  0  0  0
  1  2  1  0
  2  3  1  0
  2  4  1  0
  4  5  1  0
  4  6  1  0
  4  7  1  0
  7  8  1  0
  9  8  1  6
  9 10  1  0
 10 11  1  0
 11 12  1  0
 12 13  2  0
 13 14  1  0
 14 15  2  0
  9 16  1  0
 16 17  2  0
 17 18  1  0
 18 19  2  0
 19 20  1  0
 19 21  1  0
 21 22  2  0
 22 23  1  0
 15 11  1  0
 22 16  1  0
M  END
