
     RDKit          3D

 19 19  0  0  0  0  0  0  0  0999 V2000
   -2.5949    3.7470    0.5469 C   0  0  0  0  0  0  0  0  0  0  0  0
   -2.7996    2.4442   -0.2088 C   0  0  0  0  0  0  0  0  0  0  0  0
   -1.7209    1.5570    0.1160 O   0  0  0  0  0  0  0  0  0  0  0  0
   -1.7477    0.3662   -0.5679 C   0  0  0  0  0  0  0  0  0  0  0  0
   -2.6003    0.0679   -1.4014 O   0  0  0  0  0  0  0  0  0  0  0  0
   -0.5521   -0.4933   -0.1578 C   0  0  2  0  0  0  0  0  0  0  0  0
    0.8189   -0.2235   -1.3354 S   0  0  0  0  0  0  0  0  0  0  0  0
    2.0684    1.0975   -0.2820 P   0  0  0  0  0  5  0  0  0  0  0  0
    1.5890    2.9885   -0.1742 S   0  0  0  0  0  0  0  0  0  0  0  0
    3.5728    0.8622   -0.8564 O   0  0  0  0  0  0  0  0  0  0  0  0
    3.8878    1.3168   -2.1611 C   0  0  0  0  0  0  0  0  0  0  0  0
    2.2492    0.4123    1.1866 O   0  0  0  0  0  0  0  0  0  0  0  0
    3.1934    0.9505    2.0952 C   0  0  0  0  0  0  0  0  0  0  0  0
   -0.8758   -1.9740   -0.0184 C   0  0  0  0  0  0  0  0  0  0  0  0
   -1.3731   -2.7339   -1.0898 C   0  0  0  0  0  0  0  0  0  0  0  0
   -1.6490   -4.0940   -0.9350 C   0  0  0  0  0  0  0  0  0  0  0  0
   -1.4361   -4.7152    0.2929 C   0  0  0  0  0  0  0  0  0  0  0  0
   -0.9454   -3.9778    1.3674 C   0  0  0  0  0  0  0  0  0  0  0  0
   -0.6650   -2.6183    1.2139 C   0  0  0  0  0  0  0  0  0  0  0  0
  1  2  1  0
  2  3  1  0
  3  4  1  0
  4  5  2  0
  4  6  1  0
  6  7  1  6
  7  8  1  0
  8  9  2  0
  8 10  1  0
 10 11  1  0
  8 12  1  0
 12 13  1  0
  6 14  1  0
 14 15  2  0
 15 16  1  0
 16 17  2  0
 17 18  1  0
 18 19  2  0
 19 14  1  0
M  END
