
     RDKit          3D

 18 20  0  0  0  0  0  0  0  0999 V2000
   -3.0181    1.4661   -0.2446 C   0  0  0  0  0  0  0  0  0  0  0  0
   -1.9263    0.5320   -0.6793 C   0  0  2  0  0  0  0  0  0  0  0  0
   -2.2695   -0.5898   -1.6407 C   0  0  0  0  0  0  0  0  0  0  0  0
   -1.8914   -0.9190   -0.2093 C   0  0  2  0  0  0  0  0  0  0  0  0
   -2.9506   -1.4663    0.7040 C   0  0  0  0  0  0  0  0  0  0  0  0
   -0.4475   -1.1759    0.1217 C   0  0  0  0  0  0  0  0  0  0  0  0
   -0.1046   -2.2763    0.5195 O   0  0  0  0  0  0  0  0  0  0  0  0
    0.2901   -0.0222   -0.0875 N   0  0  0  0  0  0  0  0  0  0  0  0
    1.7034    0.0921    0.1435 C   0  0  0  0  0  0  0  0  0  0  0  0
    2.5029   -1.0323    0.4152 C   0  0  0  0  0  0  0  0  0  0  0  0
    3.8798   -0.9123    0.6420 C   0  0  0  0  0  0  0  0  0  0  0  0
    4.8169   -2.3216    0.9612 Cl  0  0  0  0  0  0  0  0  0  0  0  0
    4.5020    0.3265    0.6094 C   0  0  0  0  0  0  0  0  0  0  0  0
    3.7316    1.4491    0.3472 C   0  0  0  0  0  0  0  0  0  0  0  0
    4.4798    2.9998    0.3123 Cl  0  0  0  0  0  0  0  0  0  0  0  0
    2.3546    1.3385    0.1174 C   0  0  0  0  0  0  0  0  0  0  0  0
   -0.4998    0.9958   -0.5956 C   0  0  0  0  0  0  0  0  0  0  0  0
   -0.2014    2.1119   -0.9859 O   0  0  0  0  0  0  0  0  0  0  0  0
  2  1  1  1
  2  3  1  0
  3  4  1  0
  4  5  1  1
  4  6  1  0
  6  7  2  0
  6  8  1  0
  8  9  1  0
  9 10  2  0
 10 11  1  0
 11 12  1  0
 11 13  2  0
 13 14  1  0
 14 15  1  0
 14 16  2  0
  8 17  1  0
 17 18  2  0
  4  2  1  0
 16  9  1  0
 17  2  1  0
M  END
