
     RDKit          3D

 23 24  0  0  0  0  0  0  0  0999 V2000
    4.1483    0.2505   -1.7800 F   0  0  0  0  0  0  0  0  0  0  0  0
    4.2380   -0.9785   -1.2014 C   0  0  0  0  0  0  0  0  0  0  0  0
    4.9280   -1.7610   -2.0743 F   0  0  0  0  0  0  0  0  0  0  0  0
    2.8511   -1.5590   -0.9129 C   0  0  0  0  0  0  0  0  0  0  0  0
    2.1130   -1.6648   -2.0451 F   0  0  0  0  0  0  0  0  0  0  0  0
    2.9641   -2.8055   -0.3840 F   0  0  0  0  0  0  0  0  0  0  0  0
    2.1271   -0.7627    0.0267 O   0  0  0  0  0  0  0  0  0  0  0  0
    0.8240   -1.2963    0.2785 C   0  0  0  0  0  0  0  0  0  0  0  0
    0.0847   -0.3527    1.2551 C   0  0  2  0  0  0  0  0  0  0  0  0
   -1.2087   -0.9876    1.8012 C   0  0  0  0  0  0  0  0  0  0  0  0
   -2.2192   -1.2536    0.8029 N   0  0  0  0  0  0  0  0  0  0  0  0
   -3.3350   -0.5285    0.5262 C   0  0  0  0  0  0  0  0  0  0  0  0
   -4.0045   -1.1111   -0.4414 N   0  0  0  0  0  0  0  0  0  0  0  0
   -3.2508   -2.2164   -0.7153 C   0  0  0  0  0  0  0  0  0  0  0  0
   -2.1443   -2.3463    0.0225 N   0  0  0  0  0  0  0  0  0  0  0  0
   -0.1660    1.0655    0.7290 C   0  0  0  0  0  0  0  0  0  0  0  0
   -0.4455    1.2908   -0.6328 C   0  0  0  0  0  0  0  0  0  0  0  0
   -0.6889    2.5788   -1.1185 C   0  0  0  0  0  0  0  0  0  0  0  0
   -0.6634    3.6640   -0.2509 C   0  0  0  0  0  0  0  0  0  0  0  0
   -0.9654    5.2472   -0.8502 Cl  0  0  0  0  0  0  0  0  0  0  0  0
   -0.4046    3.4738    1.1011 C   0  0  0  0  0  0  0  0  0  0  0  0
   -0.1626    2.1854    1.5884 C   0  0  0  0  0  0  0  0  0  0  0  0
    0.1138    2.0375    3.2905 Cl  0  0  0  0  0  0  0  0  0  0  0  0
  1  2  1  0
  2  3  1  0
  2  4  1  0
  4  5  1  0
  4  6  1  0
  4  7  1  0
  7  8  1  0
  9  8  1  6
  9 10  1  0
 10 11  1  0
 11 12  1  0
 12 13  2  0
 13 14  1  0
 14 15  2  0
  9 16  1  0
 16 17  2  0
 17 18  1  0
 18 19  2  0
 19 20  1  0
 19 21  1  0
 21 22  2  0
 22 23  1  0
 15 11  1  0
 22 16  1  0
M  END
