
     RDKit          3D

 26 28  0  0  0  0  0  0  0  0999 V2000
    3.0308    1.9939   -1.9483 C   0  0  0  0  0  0  0  0  0  0  0  0
    3.3091    0.8137   -1.0495 C   0  0  0  0  0  0  0  0  0  0  0  0
    2.8863    1.0516    0.3828 C   0  0  0  0  0  0  0  0  0  0  0  0
    3.1684   -0.5759   -1.6578 C   0  0  2  0  0  0  0  0  0  0  0  0
    2.5673   -1.7087   -0.9173 C   0  0  0  0  0  0  0  0  0  0  0  0
    3.1635   -2.7601   -0.7337 O   0  0  0  0  0  0  0  0  0  0  0  0
    1.2905   -1.4390   -0.5452 O   0  0  0  0  0  0  0  0  0  0  0  0
    0.6727   -2.5104    0.1743 C   0  0  0  0  0  0  0  0  0  0  0  0
   -0.7466   -2.1493    0.5475 C   0  0  0  0  0  0  0  0  0  0  0  0
   -1.6985   -3.1684    0.7144 C   0  0  0  0  0  0  0  0  0  0  0  0
   -3.0046   -2.8684    1.1072 C   0  0  0  0  0  0  0  0  0  0  0  0
   -3.3771   -1.5457    1.3406 C   0  0  0  0  0  0  0  0  0  0  0  0
   -2.4419   -0.5232    1.1695 C   0  0  0  0  0  0  0  0  0  0  0  0
   -2.7342    0.7990    1.4210 O   0  0  0  0  0  0  0  0  0  0  0  0
   -3.8903    1.3013    0.8665 C   0  0  0  0  0  0  0  0  0  0  0  0
   -4.7198    2.0538    1.6987 C   0  0  0  0  0  0  0  0  0  0  0  0
   -5.8900    2.6159    1.1874 C   0  0  0  0  0  0  0  0  0  0  0  0
   -6.2200    2.4378   -0.1570 C   0  0  0  0  0  0  0  0  0  0  0  0
   -5.3777    1.7043   -0.9941 C   0  0  0  0  0  0  0  0  0  0  0  0
   -4.2064    1.1411   -0.4851 C   0  0  0  0  0  0  0  0  0  0  0  0
   -1.1294   -0.8233    0.8006 C   0  0  0  0  0  0  0  0  0  0  0  0
    4.5450   -0.0164   -1.3575 C   0  0  2  0  0  0  0  0  0  0  0  0
    5.3891   -0.5317   -0.2665 C   0  0  0  0  0  0  0  0  0  0  0  0
    6.3417    0.1329    0.4076 C   0  0  0  0  0  0  0  0  0  0  0  0
    6.7239    1.7840    0.0729 Cl  0  0  0  0  0  0  0  0  0  0  0  0
    7.2410   -0.6570    1.6544 Cl  0  0  0  0  0  0  0  0  0  0  0  0
  1  2  1  0
  2  3  1  0
  2  4  1  0
  4  5  1  1
  5  6  2  0
  5  7  1  0
  7  8  1  0
  8  9  1  0
  9 10  2  0
 10 11  1  0
 11 12  2  0
 12 13  1  0
 13 14  1  0
 14 15  1  0
 15 16  2  0
 16 17  1  0
 17 18  2  0
 18 19  1  0
 19 20  2  0
 13 21  2  0
  4 22  1  0
 22 23  1  1
 23 24  2  3
 24 25  1  0
 24 26  1  0
 22  2  1  0
 21  9  1  0
 20 15  1  0
M  END
