
     RDKit          3D

 11 12  0  0  0  0  0  0  0  0999 V2000
   -2.2003   -0.0904    0.5278 C   0  0  0  0  0  0  0  0  0  0  0  0
   -1.8438    1.3552    0.2258 C   0  0  0  0  0  0  0  0  0  0  0  0
   -0.5392    1.6954    0.7070 O   0  0  0  0  0  0  0  0  0  0  0  0
    0.4432    0.8003    0.3777 C   0  0  0  0  0  0  0  0  0  0  0  0
    1.7557    1.2457    0.5342 C   0  0  0  0  0  0  0  0  0  0  0  0
    2.8235    0.4017    0.2297 C   0  0  0  0  0  0  0  0  0  0  0  0
    2.5792   -0.8925   -0.2255 C   0  0  0  0  0  0  0  0  0  0  0  0
    1.2671   -1.3451   -0.3697 C   0  0  0  0  0  0  0  0  0  0  0  0
    0.1872   -0.5038   -0.0600 C   0  0  0  0  0  0  0  0  0  0  0  0
   -1.2254   -0.9974   -0.2085 C   0  0  2  0  0  0  0  0  0  0  0  0
   -1.5911   -1.0477   -1.5881 O   0  0  0  0  0  0  0  0  0  0  0  0
  1  2  1  0
  2  3  1  0
  3  4  1  0
  4  5  2  0
  5  6  1  0
  6  7  2  0
  7  8  1  0
  8  9  2  0
  9 10  1  0
 10 11  1  6
 10  1  1  0
  9  4  1  0
M  END
