
     RDKit          3D

  7  6  0  0  0  0  0  0  0  0999 V2000
   -2.4426   -0.9864    0.5766 C   0  0  0  0  0  0  0  0  0  0  0  0
   -1.2999    0.0240    0.4668 C   0  0  1  0  0  0  0  0  0  0  0  0
   -0.1227   -0.5863   -0.3168 C   0  0  0  0  0  0  0  0  0  0  0  0
    1.1194    0.3154   -0.4800 C   0  0  0  0  0  0  0  0  0  0  0  0
    1.7144    0.7400    0.8630 C   0  0  0  0  0  0  0  0  0  0  0  0
    2.1815   -0.4162   -1.3064 C   0  0  0  0  0  0  0  0  0  0  0  0
   -1.8038    1.2331   -0.1835 N   0  0  0  0  0  0  0  0  0  0  0  0
  2  1  1  6
  2  3  1  0
  3  4  1  0
  4  5  1  0
  4  6  1  0
  2  7  1  0
M  END
