
     RDKit          3D

 13 14  0  0  0  0  0  0  0  0999 V2000
   -3.4960   -0.9660   -0.0185 C   0  0  0  0  0  0  0  0  0  0  0  0
   -2.6139   -0.0285    0.7949 C   0  0  1  0  0  0  0  0  0  0  0  0
   -1.2129    0.0853    0.2352 C   0  0  0  0  0  0  0  0  0  0  0  0
   -0.1214   -0.4361    0.9471 C   0  0  0  0  0  0  0  0  0  0  0  0
    1.1894   -0.3413    0.4473 C   0  0  0  0  0  0  0  0  0  0  0  0
    2.2838   -0.8614    1.1575 C   0  0  0  0  0  0  0  0  0  0  0  0
    3.5795   -0.7595    0.6482 C   0  0  0  0  0  0  0  0  0  0  0  0
    3.7981   -0.1369   -0.5770 C   0  0  0  0  0  0  0  0  0  0  0  0
    2.7215    0.3850   -1.2957 C   0  0  0  0  0  0  0  0  0  0  0  0
    1.4122    0.2905   -0.7967 C   0  0  0  0  0  0  0  0  0  0  0  0
    0.3200    0.8096   -1.5069 C   0  0  0  0  0  0  0  0  0  0  0  0
   -0.9763    0.7078   -0.9974 C   0  0  0  0  0  0  0  0  0  0  0  0
   -3.2284    1.2584    0.8393 O   0  0  0  0  0  0  0  0  0  0  0  0
  2  1  1  6
  2  3  1  0
  3  4  2  0
  4  5  1  0
  5  6  2  0
  6  7  1  0
  7  8  2  0
  8  9  1  0
  9 10  2  0
 10 11  1  0
 11 12  2  0
  2 13  1  0
 12  3  1  0
 10  5  1  0
M  END
