
     RDKit          3D

 11 11  0  0  0  0  0  0  0  0999 V2000
    2.4659   -0.7106    1.0808 C   0  0  0  0  0  0  0  0  0  0  0  0
    1.5609   -0.9644   -0.1212 C   0  0  1  0  0  0  0  0  0  0  0  0
    0.2161   -0.2635   -0.1194 C   0  0  0  0  0  0  0  0  0  0  0  0
   -0.6534   -0.4777   -1.2052 C   0  0  0  0  0  0  0  0  0  0  0  0
   -1.9110    0.1299   -1.2583 C   0  0  0  0  0  0  0  0  0  0  0  0
   -2.3252    0.9665   -0.2211 C   0  0  0  0  0  0  0  0  0  0  0  0
   -1.4749    1.1907    0.8645 C   0  0  0  0  0  0  0  0  0  0  0  0
   -0.2157    0.5809    0.9142 C   0  0  0  0  0  0  0  0  0  0  0  0
   -3.6133    1.5930   -0.2695 C   0  0  0  0  0  0  0  0  0  0  0  0
   -4.6577    2.0984   -0.3049 N   0  0  0  0  0  0  0  0  0  0  0  0
    2.2587   -0.5650   -1.3010 O   0  0  0  0  0  0  0  0  0  0  0  0
  2  1  1  1
  2  3  1  0
  3  4  2  0
  4  5  1  0
  5  6  2  0
  6  7  1  0
  7  8  2  0
  6  9  1  0
  9 10  3  0
  2 11  1  0
  8  3  1  0
M  END
