
     RDKit          3D

 26 28  0  0  0  0  0  0  0  0999 V2000
   -3.9765   -1.7748    1.6063 C   0  0  0  0  0  0  0  0  0  0  0  0
   -4.4496   -0.9528    0.4301 C   0  0  0  0  0  0  0  0  0  0  0  0
   -4.8562   -1.7966   -0.7552 C   0  0  0  0  0  0  0  0  0  0  0  0
   -5.1567    0.3585    0.7419 C   0  0  2  0  0  0  0  0  0  0  0  0
   -6.3170    0.7915   -0.0536 C   0  0  0  0  0  0  0  0  0  0  0  0
   -6.5957    2.0281   -0.4940 C   0  0  0  0  0  0  0  0  0  0  0  0
   -8.0343    2.3239   -1.4045 Cl  0  0  0  0  0  0  0  0  0  0  0  0
   -5.5570    3.3716   -0.1872 Cl  0  0  0  0  0  0  0  0  0  0  0  0
   -3.7740    0.3761    0.1203 C   0  0  1  0  0  0  0  0  0  0  0  0
   -2.6032    0.8463    0.9009 C   0  0  0  0  0  0  0  0  0  0  0  0
   -2.6913    1.2770    2.0412 O   0  0  0  0  0  0  0  0  0  0  0  0
   -1.4595    0.7093    0.1855 O   0  0  0  0  0  0  0  0  0  0  0  0
   -0.2915    1.1246    0.8960 C   0  0  0  0  0  0  0  0  0  0  0  0
    0.9004    0.9226   -0.0037 C   0  0  0  0  0  0  0  0  0  0  0  0
    1.0630    1.7130   -1.1521 C   0  0  0  0  0  0  0  0  0  0  0  0
    2.1552    1.5189   -1.9998 C   0  0  0  0  0  0  0  0  0  0  0  0
    3.1016    0.5379   -1.7059 C   0  0  0  0  0  0  0  0  0  0  0  0
    2.9588   -0.2399   -0.5548 C   0  0  0  0  0  0  0  0  0  0  0  0
    3.8345   -1.2501   -0.2245 O   0  0  0  0  0  0  0  0  0  0  0  0
    5.1799   -0.9677   -0.2984 C   0  0  0  0  0  0  0  0  0  0  0  0
    5.7441    0.1664    0.2919 C   0  0  0  0  0  0  0  0  0  0  0  0
    7.1218    0.3748    0.2139 C   0  0  0  0  0  0  0  0  0  0  0  0
    7.9332   -0.5547   -0.4384 C   0  0  0  0  0  0  0  0  0  0  0  0
    7.3700   -1.6977   -1.0075 C   0  0  0  0  0  0  0  0  0  0  0  0
    5.9929   -1.9089   -0.9305 C   0  0  0  0  0  0  0  0  0  0  0  0
    1.8544   -0.0643    0.2814 C   0  0  0  0  0  0  0  0  0  0  0  0
  1  2  1  0
  2  3  1  0
  2  4  1  0
  4  5  1  6
  5  6  2  3
  6  7  1  0
  6  8  1  0
  4  9  1  0
  9 10  1  1
 10 11  2  0
 10 12  1  0
 12 13  1  0
 13 14  1  0
 14 15  2  0
 15 16  1  0
 16 17  2  0
 17 18  1  0
 18 19  1  0
 19 20  1  0
 20 21  2  0
 21 22  1  0
 22 23  2  0
 23 24  1  0
 24 25  2  0
 18 26  2  0
  9  2  1  0
 26 14  1  0
 25 20  1  0
M  END
