
     RDKit          3D

 13 14  0  0  0  0  0  0  0  0999 V2000
    3.7288   -1.1831   -0.2829 C   0  0  0  0  0  0  0  0  0  0  0  0
    2.9239   -0.1799   -0.8684 O   0  0  0  0  0  0  0  0  0  0  0  0
    1.8080    0.5434    0.0550 P   0  0  1  0  0  5  0  0  0  0  0  0
    2.4644    1.5284    1.5902 S   0  0  0  0  0  0  0  0  0  0  0  0
    1.0088    1.3989   -1.0579 O   0  0  0  0  0  0  0  0  0  0  0  0
   -0.2670    1.8661   -0.6645 C   0  0  0  0  0  0  0  0  0  0  0  0
   -1.1237    0.7654   -0.1032 C   0  0  0  0  0  0  0  0  0  0  0  0
   -2.5128    0.9415   -0.0200 C   0  0  0  0  0  0  0  0  0  0  0  0
   -3.3260   -0.0632    0.5092 C   0  0  0  0  0  0  0  0  0  0  0  0
   -2.7603   -1.2523    0.9652 C   0  0  0  0  0  0  0  0  0  0  0  0
   -1.3806   -1.4351    0.8984 C   0  0  0  0  0  0  0  0  0  0  0  0
   -0.5725   -0.4259    0.3776 C   0  0  0  0  0  0  0  0  0  0  0  0
    0.7721   -0.6649    0.3394 O   0  0  0  0  0  0  0  0  0  0  0  0
  1  2  1  0
  3  2  1  6
  3  4  2  0
  3  5  1  0
  5  6  1  0
  6  7  1  0
  7  8  2  0
  8  9  1  0
  9 10  2  0
 10 11  1  0
 11 12  2  0
 12 13  1  0
 13  3  1  0
 12  7  1  0
M  END
