
     RDKit          3D

 25 27  0  0  0  0  0  0  0  0999 V2000
   -5.2311   -1.6661    0.3454 C   0  0  0  0  0  0  0  0  0  0  0  0
   -4.1818   -0.6026   -0.0609 C   0  0  0  0  0  0  0  0  0  0  0  0
   -4.8422    0.7751    0.1092 C   0  0  0  0  0  0  0  0  0  0  0  0
   -3.8513   -0.8142   -1.5511 C   0  0  0  0  0  0  0  0  0  0  0  0
   -2.9137   -0.7776    0.8390 C   0  0  1  0  0  0  0  0  0  0  0  0
   -2.4614   -2.1450    0.6913 O   0  0  0  0  0  0  0  0  0  0  0  0
   -1.7039    0.1735    0.5887 C   0  0  2  0  0  0  0  0  0  0  0  0
   -0.6021   -0.3768    1.3550 O   0  0  0  0  0  0  0  0  0  0  0  0
    0.6610   -0.2727    0.8443 C   0  0  0  0  0  0  0  0  0  0  0  0
    1.5927   -1.1401    1.4159 C   0  0  0  0  0  0  0  0  0  0  0  0
    2.9234   -1.1430    0.9848 C   0  0  0  0  0  0  0  0  0  0  0  0
    3.3569   -0.2712   -0.0233 C   0  0  0  0  0  0  0  0  0  0  0  0
    4.7535   -0.2749   -0.4880 C   0  0  0  0  0  0  0  0  0  0  0  0
    5.8202   -0.1363    0.4166 C   0  0  0  0  0  0  0  0  0  0  0  0
    7.1464   -0.1380   -0.0260 C   0  0  0  0  0  0  0  0  0  0  0  0
    7.4288   -0.2802   -1.3834 C   0  0  0  0  0  0  0  0  0  0  0  0
    6.3868   -0.4201   -2.2978 C   0  0  0  0  0  0  0  0  0  0  0  0
    5.0612   -0.4174   -1.8535 C   0  0  0  0  0  0  0  0  0  0  0  0
    2.4144    0.6106   -0.5721 C   0  0  0  0  0  0  0  0  0  0  0  0
    1.0813    0.6160   -0.1405 C   0  0  0  0  0  0  0  0  0  0  0  0
   -1.9249    1.5317    1.0529 N   0  0  0  0  0  0  0  0  0  0  0  0
   -2.1348    1.9547    2.3311 C   0  0  0  0  0  0  0  0  0  0  0  0
   -2.2735    3.2593    2.3457 N   0  0  0  0  0  0  0  0  0  0  0  0
   -2.0956    3.6032    1.0367 C   0  0  0  0  0  0  0  0  0  0  0  0
   -1.8751    2.5825    0.2045 N   0  0  0  0  0  0  0  0  0  0  0  0
  1  2  1  0
  2  3  1  0
  2  4  1  0
  2  5  1  0
  5  6  1  6
  5  7  1  0
  7  8  1  1
  8  9  1  0
  9 10  2  0
 10 11  1  0
 11 12  2  0
 12 13  1  0
 13 14  2  0
 14 15  1  0
 15 16  2  0
 16 17  1  0
 17 18  2  0
 12 19  1  0
 19 20  2  0
  7 21  1  0
 21 22  1  0
 22 23  2  0
 23 24  1  0
 24 25  2  0
 20  9  1  0
 25 21  1  0
 18 13  1  0
M  END
