
     RDKit          3D

 21 22  0  0  0  0  0  0  0  0999 V2000
   -3.9685   -2.7276   -0.0879 C   0  0  0  0  0  0  0  0  0  0  0  0
   -3.2088   -1.8222   -1.0355 C   0  0  0  0  0  0  0  0  0  0  0  0
   -1.8243   -1.9212   -0.7397 O   0  0  0  0  0  0  0  0  0  0  0  0
   -0.8450   -0.6671   -1.1031 P   0  0  2  0  0  5  0  0  0  0  0  0
   -0.8354   -0.2739   -3.0208 S   0  0  0  0  0  0  0  0  0  0  0  0
    0.5499   -1.3009   -0.5633 O   0  0  0  0  0  0  0  0  0  0  0  0
    1.7531   -0.6648   -0.4450 C   0  0  0  0  0  0  0  0  0  0  0  0
    1.9938    0.6609   -0.8016 C   0  0  0  0  0  0  0  0  0  0  0  0
    3.2686    1.2127   -0.6272 C   0  0  0  0  0  0  0  0  0  0  0  0
    4.2998    0.4283   -0.0943 C   0  0  0  0  0  0  0  0  0  0  0  0
    5.6360    1.0077    0.0917 N   0  0  0  0  0  4  0  0  0  0  0  0
    6.5230    0.2750    0.5523 O   0  0  0  0  0  0  0  0  0  0  0  0
    5.7970    2.1966   -0.2189 O   0  0  0  0  0  1  0  0  0  0  0  0
    4.0635   -0.9036    0.2630 C   0  0  0  0  0  0  0  0  0  0  0  0
    2.7873   -1.4430    0.0843 C   0  0  0  0  0  0  0  0  0  0  0  0
   -1.2916    0.5550    0.1316 C   0  0  0  0  0  0  0  0  0  0  0  0
   -1.2471    0.2227    1.4959 C   0  0  0  0  0  0  0  0  0  0  0  0
   -1.5911    1.1598    2.4703 C   0  0  0  0  0  0  0  0  0  0  0  0
   -1.9872    2.4408    2.0937 C   0  0  0  0  0  0  0  0  0  0  0  0
   -2.0418    2.7850    0.7448 C   0  0  0  0  0  0  0  0  0  0  0  0
   -1.6978    1.8482   -0.2314 C   0  0  0  0  0  0  0  0  0  0  0  0
  1  2  1  0
  2  3  1  0
  4  3  1  6
  4  5  2  0
  4  6  1  0
  6  7  1  0
  7  8  2  0
  8  9  1  0
  9 10  2  0
 10 11  1  0
 11 12  2  0
 11 13  1  0
 10 14  1  0
 14 15  2  0
  4 16  1  0
 16 17  2  0
 17 18  1  0
 18 19  2  0
 19 20  1  0
 20 21  2  0
 15  7  1  0
 21 16  1  0
M  CHG  2  11   1  13  -1
M  END
