
     RDKit          3D

 24 25  0  0  0  0  0  0  0  0999 V2000
   -4.5330   -1.5262    0.2343 C   0  0  0  0  0  0  0  0  0  0  0  0
   -3.5472   -0.3549    0.1954 C   0  0  0  0  0  0  0  0  0  0  0  0
   -3.7546    0.5057    1.4466 C   0  0  0  0  0  0  0  0  0  0  0  0
   -2.0822   -0.8387    0.1236 C   0  0  0  0  0  0  0  0  0  0  0  0
   -1.4469   -0.9486   -1.2842 C   0  0  1  0  0  0  0  0  0  0  0  0
   -2.2391   -1.8204   -2.2586 C   0  0  0  0  0  0  0  0  0  0  0  0
   -1.0604    0.4251   -1.8323 C   0  0  0  0  0  0  0  0  0  0  0  0
   -2.1114    1.2665   -2.9078 S   0  0  0  0  0  0  0  0  0  0  0  0
   -1.0649    2.5984   -3.0174 C   0  0  0  0  0  0  0  0  0  0  0  0
    0.0668    2.4225   -2.2577 C   0  0  0  0  0  0  0  0  0  0  0  0
    0.0892    1.1697   -1.5688 C   0  0  0  0  0  0  0  0  0  0  0  0
    1.0956    0.7043   -0.7175 N   0  0  0  0  0  0  0  0  0  0  0  0
    2.2794    1.3635   -0.4377 C   0  0  0  0  0  0  0  0  0  0  0  0
    2.6419    2.4166   -0.9508 O   0  0  0  0  0  0  0  0  0  0  0  0
    3.1575    0.6879    0.5177 C   0  0  0  0  0  0  0  0  0  0  0  0
    4.5310    0.8557    0.5518 C   0  0  0  0  0  0  0  0  0  0  0  0
    4.9996    0.0898    1.5701 N   0  0  0  0  0  0  0  0  0  0  0  0
    6.3752   -0.0610    1.9818 C   0  0  0  0  0  0  0  0  0  0  0  0
    4.0343   -0.5764    2.2213 N   0  0  0  0  0  0  0  0  0  0  0  0
    2.8916   -0.1936    1.6141 C   0  0  0  0  0  0  0  0  0  0  0  0
    1.5452   -0.6575    2.0890 C   0  0  0  0  0  0  0  0  0  0  0  0
    0.7483    0.3837    2.4451 F   0  0  0  0  0  0  0  0  0  0  0  0
    1.5808   -1.5109    3.1428 F   0  0  0  0  0  0  0  0  0  0  0  0
    0.8878   -1.3060    1.0839 F   0  0  0  0  0  0  0  0  0  0  0  0
  1  2  1  0
  2  3  1  0
  2  4  1  0
  4  5  1  0
  5  6  1  6
  5  7  1  0
  7  8  1  0
  8  9  1  0
  9 10  2  0
 10 11  1  0
 11 12  1  0
 12 13  1  0
 13 14  2  0
 13 15  1  0
 15 16  2  0
 16 17  1  0
 17 18  1  0
 17 19  1  0
 19 20  2  0
 20 21  1  0
 21 22  1  0
 21 23  1  0
 21 24  1  0
 11  7  2  0
 20 15  1  0
M  END
