
     RDKit          3D

 20 21  0  0  0  0  0  0  0  0999 V2000
   -2.4572   -1.8024    1.1201 C   0  0  0  0  0  0  0  0  0  0  0  0
   -1.6891   -0.9889    0.0511 C   0  0  0  0  0  0  0  0  0  0  0  0
   -0.6907   -1.9428   -0.6259 C   0  0  0  0  0  0  0  0  0  0  0  0
   -2.7088   -0.5345   -1.0087 C   0  0  0  0  0  0  0  0  0  0  0  0
   -0.9737    0.2236    0.7513 C   0  0  1  0  0  0  0  0  0  0  0  0
   -0.1366   -0.2870    1.7950 O   0  0  0  0  0  0  0  0  0  0  0  0
   -0.1886    1.2043   -0.1454 C   0  0  0  0  0  0  0  0  0  0  0  0
    1.1444    1.1466   -0.4053 C   0  0  0  0  0  0  0  0  0  0  0  0
    2.1551    0.1921    0.0675 C   0  0  0  0  0  0  0  0  0  0  0  0
    2.5782   -0.8522   -0.7623 C   0  0  0  0  0  0  0  0  0  0  0  0
    3.5723   -1.7363   -0.3342 C   0  0  0  0  0  0  0  0  0  0  0  0
    4.1589   -1.5645    0.9175 C   0  0  0  0  0  0  0  0  0  0  0  0
    5.3853   -2.6504    1.4434 Cl  0  0  0  0  0  0  0  0  0  0  0  0
    3.7675   -0.5109    1.7405 C   0  0  0  0  0  0  0  0  0  0  0  0
    2.7731    0.3723    1.3114 C   0  0  0  0  0  0  0  0  0  0  0  0
   -0.9831    2.2748   -0.6576 N   0  0  0  0  0  0  0  0  0  0  0  0
   -0.6037    3.2580   -1.5683 C   0  0  0  0  0  0  0  0  0  0  0  0
   -1.5744    4.1064   -1.8075 N   0  0  0  0  0  0  0  0  0  0  0  0
   -2.5732    3.6311   -1.0291 C   0  0  0  0  0  0  0  0  0  0  0  0
   -2.2810    2.5443   -0.3207 N   0  0  0  0  0  0  0  0  0  0  0  0
  1  2  1  0
  2  3  1  0
  2  4  1  0
  2  5  1  0
  5  6  1  1
  5  7  1  0
  7  8  2  0
  8  9  1  0
  9 10  2  0
 10 11  1  0
 11 12  2  0
 12 13  1  0
 12 14  1  0
 14 15  2  0
  7 16  1  0
 16 17  1  0
 17 18  2  0
 18 19  1  0
 19 20  2  0
 15  9  1  0
 20 16  1  0
M  END
