
     RDKit          3D

 21 22  0  0  0  0  0  0  0  0999 V2000
   -2.6630    3.7645    1.4880 C   0  0  0  0  0  0  0  0  0  0  0  0
   -2.1304    3.2096    0.1830 C   0  0  0  0  0  0  0  0  0  0  0  0
   -0.8686    2.6091    0.4307 O   0  0  0  0  0  0  0  0  0  0  0  0
   -0.3519    1.4155   -0.5553 P   0  0  1  0  0  5  0  0  0  0  0  0
   -0.1710    2.0194   -2.4086 S   0  0  0  0  0  0  0  0  0  0  0  0
    1.0697    1.1164    0.1715 O   0  0  0  0  0  0  0  0  0  0  0  0
    1.9347    0.0942   -0.0987 C   0  0  0  0  0  0  0  0  0  0  0  0
    1.7419   -0.8767   -1.0798 C   0  0  0  0  0  0  0  0  0  0  0  0
    2.6940   -1.8867   -1.2623 C   0  0  0  0  0  0  0  0  0  0  0  0
    3.8397   -1.9173   -0.4568 C   0  0  0  0  0  0  0  0  0  0  0  0
    4.8368   -2.9783   -0.6460 N   0  0  0  0  0  4  0  0  0  0  0  0
    4.6152   -3.8282   -1.5203 O   0  0  0  0  0  0  0  0  0  0  0  0
    5.8392   -2.9638    0.0825 O   0  0  0  0  0  1  0  0  0  0  0  0
    4.0387   -0.9435    0.5279 C   0  0  0  0  0  0  0  0  0  0  0  0
    3.0816    0.0591    0.7007 C   0  0  0  0  0  0  0  0  0  0  0  0
   -1.3968    0.0349   -0.0868 C   0  0  0  0  0  0  0  0  0  0  0  0
   -2.1740   -0.6495   -1.0338 C   0  0  0  0  0  0  0  0  0  0  0  0
   -2.9812   -1.7216   -0.6493 C   0  0  0  0  0  0  0  0  0  0  0  0
   -3.0244   -2.1205    0.6850 C   0  0  0  0  0  0  0  0  0  0  0  0
   -2.2631   -1.4483    1.6380 C   0  0  0  0  0  0  0  0  0  0  0  0
   -1.4559   -0.3768    1.2552 C   0  0  0  0  0  0  0  0  0  0  0  0
  1  2  1  0
  2  3  1  0
  4  3  1  1
  4  5  2  0
  4  6  1  0
  6  7  1  0
  7  8  2  0
  8  9  1  0
  9 10  2  0
 10 11  1  0
 11 12  2  0
 11 13  1  0
 10 14  1  0
 14 15  2  0
  4 16  1  0
 16 17  2  0
 17 18  1  0
 18 19  2  0
 19 20  1  0
 20 21  2  0
 15  7  1  0
 21 16  1  0
M  CHG  2  11   1  13  -1
M  END
