
     RDKit          3D

 11 12  0  0  0  0  0  0  0  0999 V2000
   -2.1123    0.1658    0.5848 C   0  0  0  0  0  0  0  0  0  0  0  0
   -1.7492    1.3950   -0.2314 C   0  0  0  0  0  0  0  0  0  0  0  0
   -0.4419    1.8717    0.1008 O   0  0  0  0  0  0  0  0  0  0  0  0
    0.5289    0.9062    0.0370 C   0  0  0  0  0  0  0  0  0  0  0  0
    1.8446    1.3632   -0.0452 C   0  0  0  0  0  0  0  0  0  0  0  0
    2.8985    0.4529   -0.1165 C   0  0  0  0  0  0  0  0  0  0  0  0
    2.6364   -0.9156   -0.1013 C   0  0  0  0  0  0  0  0  0  0  0  0
    1.3214   -1.3734   -0.0019 C   0  0  0  0  0  0  0  0  0  0  0  0
    0.2544   -0.4656    0.0828 C   0  0  0  0  0  0  0  0  0  0  0  0
   -1.1555   -0.9638    0.2273 C   0  0  2  0  0  0  0  0  0  0  0  0
   -1.5533   -1.5616   -1.0045 O   0  0  0  0  0  0  0  0  0  0  0  0
  1  2  1  0
  2  3  1  0
  3  4  1  0
  4  5  2  0
  5  6  1  0
  6  7  2  0
  7  8  1  0
  8  9  2  0
  9 10  1  0
 10 11  1  6
 10  1  1  0
  9  4  1  0
M  END
