
     RDKit          3D

 25 27  0  0  0  0  0  0  0  0999 V2000
   -4.8597   -0.2580   -0.2367 C   0  0  0  0  0  0  0  0  0  0  0  0
   -3.6324    0.5760    0.1723 C   0  0  0  0  0  0  0  0  0  0  0  0
   -3.2951    1.5607   -0.9620 C   0  0  0  0  0  0  0  0  0  0  0  0
   -4.0432    1.4102    1.4103 C   0  0  0  0  0  0  0  0  0  0  0  0
   -2.3915   -0.3041    0.5454 C   0  0  1  0  0  0  0  0  0  0  0  0
   -2.7333   -1.2258    1.5894 O   0  0  0  0  0  0  0  0  0  0  0  0
   -1.6276   -1.0122   -0.6233 C   0  0  1  0  0  0  0  0  0  0  0  0
   -0.4403   -1.6649   -0.1374 O   0  0  0  0  0  0  0  0  0  0  0  0
    0.7264   -0.9668   -0.0260 C   0  0  0  0  0  0  0  0  0  0  0  0
    1.8133   -1.7380    0.3891 C   0  0  0  0  0  0  0  0  0  0  0  0
    3.0791   -1.1666    0.5529 C   0  0  0  0  0  0  0  0  0  0  0  0
    3.2899    0.1964    0.3053 C   0  0  0  0  0  0  0  0  0  0  0  0
    4.6188    0.8053    0.4779 C   0  0  0  0  0  0  0  0  0  0  0  0
    5.3242    0.6728    1.6857 C   0  0  0  0  0  0  0  0  0  0  0  0
    6.5853    1.2519    1.8515 C   0  0  0  0  0  0  0  0  0  0  0  0
    7.1636    1.9731    0.8103 C   0  0  0  0  0  0  0  0  0  0  0  0
    6.4824    2.1157   -0.3958 C   0  0  0  0  0  0  0  0  0  0  0  0
    5.2208    1.5369   -0.5596 C   0  0  0  0  0  0  0  0  0  0  0  0
    2.1892    0.9625   -0.1091 C   0  0  0  0  0  0  0  0  0  0  0  0
    0.9193    0.3903   -0.2724 C   0  0  0  0  0  0  0  0  0  0  0  0
   -2.3782   -2.0129   -1.3753 N   0  0  0  0  0  0  0  0  0  0  0  0
   -2.5277   -2.0502   -2.7337 C   0  0  0  0  0  0  0  0  0  0  0  0
   -3.2384   -3.0986   -3.0773 N   0  0  0  0  0  0  0  0  0  0  0  0
   -3.4765   -3.7082   -1.8793 C   0  0  0  0  0  0  0  0  0  0  0  0
   -2.9696   -3.0881   -0.8130 N   0  0  0  0  0  0  0  0  0  0  0  0
  1  2  1  0
  2  3  1  0
  2  4  1  0
  2  5  1  0
  5  6  1  1
  5  7  1  0
  7  8  1  1
  8  9  1  0
  9 10  2  0
 10 11  1  0
 11 12  2  0
 12 13  1  0
 13 14  2  0
 14 15  1  0
 15 16  2  0
 16 17  1  0
 17 18  2  0
 12 19  1  0
 19 20  2  0
  7 21  1  0
 21 22  1  0
 22 23  2  0
 23 24  1  0
 24 25  2  0
 20  9  1  0
 25 21  1  0
 18 13  1  0
M  END
