
     RDKit          3D

 26 27  0  0  0  0  0  0  0  0999 V2000
    3.0918    4.3285    0.1319 N   0  0  0  0  0  0  0  0  0  0  0  0
    2.5217    3.3228    0.0230 C   0  0  0  0  0  0  0  0  0  0  0  0
    1.8967    2.0442   -0.1428 C   0  0  0  0  0  0  0  0  0  0  0  0
    0.5826    1.9178    0.0670 N   0  0  0  0  0  0  0  0  0  0  0  0
    0.3130    0.6110   -0.2075 N   0  0  0  0  0  0  0  0  0  0  0  0
   -1.0109    0.1296   -0.0950 C   0  0  0  0  0  0  0  0  0  0  0  0
   -1.7213    0.3132    1.1033 C   0  0  0  0  0  0  0  0  0  0  0  0
   -1.0245    0.9887    2.5378 Cl  0  0  0  0  0  0  0  0  0  0  0  0
   -3.0407   -0.1455    1.2161 C   0  0  0  0  0  0  0  0  0  0  0  0
   -3.6719   -0.7934    0.1465 C   0  0  0  0  0  0  0  0  0  0  0  0
   -5.1013   -1.2647    0.2650 C   0  0  0  0  0  0  0  0  0  0  0  0
   -5.3553   -2.3698   -0.4876 F   0  0  0  0  0  0  0  0  0  0  0  0
   -5.9883   -0.3180   -0.1410 F   0  0  0  0  0  0  0  0  0  0  0  0
   -5.4494   -1.5911    1.5390 F   0  0  0  0  0  0  0  0  0  0  0  0
   -2.9627   -0.9572   -1.0511 C   0  0  0  0  0  0  0  0  0  0  0  0
   -1.6440   -0.4996   -1.1773 C   0  0  0  0  0  0  0  0  0  0  0  0
   -0.9324   -0.6556   -2.7471 Cl  0  0  0  0  0  0  0  0  0  0  0  0
    1.4674   -0.0892   -0.5707 C   0  0  0  0  0  0  0  0  0  0  0  0
    1.5230   -1.4220   -0.8363 N   0  0  0  0  0  0  0  0  0  0  0  0
    2.4877    0.8327   -0.5212 C   0  0  0  0  0  0  0  0  0  0  0  0
    4.2155    0.5458   -0.8717 S   0  0  0  0  0  4  0  0  0  0  0  0
    4.2862   -0.7476   -1.6401 O   0  0  0  0  0  0  0  0  0  0  0  0
    4.7494    0.2810    0.8444 C   0  0  0  0  0  0  0  0  0  0  0  0
    4.1163   -0.7585    1.4419 F   0  0  0  0  0  0  0  0  0  0  0  0
    6.0822    0.0376    0.9218 F   0  0  0  0  0  0  0  0  0  0  0  0
    4.5090    1.3805    1.6056 F   0  0  0  0  0  0  0  0  0  0  0  0
  1  2  3  0
  2  3  1  0
  3  4  2  0
  4  5  1  0
  5  6  1  0
  6  7  2  0
  7  8  1  0
  7  9  1  0
  9 10  2  0
 10 11  1  0
 11 12  1  0
 11 13  1  0
 11 14  1  0
 10 15  1  0
 15 16  2  0
 16 17  1  0
  5 18  1  0
 18 19  1  0
 18 20  2  0
 20 21  1  0
 21 22  2  0
 21 23  1  1
 23 24  1  0
 23 25  1  0
 23 26  1  0
 20  3  1  0
 16  6  1  0
M  END
