
     RDKit          3D

 26 28  0  0  0  0  0  0  0  0999 V2000
   -5.2897    2.4574    1.1726 C   0  0  0  0  0  0  0  0  0  0  0  0
   -3.8516    1.9888    1.0785 C   0  0  0  0  0  0  0  0  0  0  0  0
   -2.9329    2.8303    1.9420 C   0  0  0  0  0  0  0  0  0  0  0  0
   -3.6085    0.4886    0.9491 C   0  0  0  0  0  0  0  0  0  0  0  0
   -2.5289   -0.2043    1.6896 C   0  0  0  0  0  0  0  0  0  0  0  0
   -2.3947   -0.1074    2.8998 O   0  0  0  0  0  0  0  0  0  0  0  0
   -1.7669   -0.9616    0.8647 O   0  0  0  0  0  0  0  0  0  0  0  0
   -0.7122   -1.6824    1.5301 C   0  0  1  0  0  0  0  0  0  0  0  0
   -1.2151   -2.9607    2.0825 C   0  0  0  0  0  0  0  0  0  0  0  0
   -1.6224   -3.9616    2.5113 N   0  0  0  0  0  0  0  0  0  0  0  0
    0.3900   -1.9102    0.5058 C   0  0  0  0  0  0  0  0  0  0  0  0
    0.1067   -2.4269   -0.7714 C   0  0  0  0  0  0  0  0  0  0  0  0
    1.1320   -2.6542   -1.6917 C   0  0  0  0  0  0  0  0  0  0  0  0
    2.4537   -2.3649   -1.3532 C   0  0  0  0  0  0  0  0  0  0  0  0
    2.7470   -1.8297   -0.0983 C   0  0  0  0  0  0  0  0  0  0  0  0
    4.0273   -1.5513    0.3256 O   0  0  0  0  0  0  0  0  0  0  0  0
    4.8862   -0.9646   -0.5749 C   0  0  0  0  0  0  0  0  0  0  0  0
    4.5479    0.1802   -1.3006 C   0  0  0  0  0  0  0  0  0  0  0  0
    5.4794    0.7470   -2.1714 C   0  0  0  0  0  0  0  0  0  0  0  0
    6.7483    0.1809   -2.3021 C   0  0  0  0  0  0  0  0  0  0  0  0
    7.0917   -0.9479   -1.5574 C   0  0  0  0  0  0  0  0  0  0  0  0
    6.1624   -1.5165   -0.6866 C   0  0  0  0  0  0  0  0  0  0  0  0
    1.7261   -1.6223    0.8325 C   0  0  0  0  0  0  0  0  0  0  0  0
   -3.3345    1.3989   -0.2453 C   0  0  0  0  0  0  0  0  0  0  0  0
   -1.9135    1.6966   -0.6792 C   0  0  0  0  0  0  0  0  0  0  0  0
   -4.2701    1.2833   -1.4304 C   0  0  0  0  0  0  0  0  0  0  0  0
  1  2  1  0
  2  3  1  0
  2  4  1  0
  4  5  1  0
  5  6  2  0
  5  7  1  0
  7  8  1  0
  8  9  1  6
  9 10  3  0
  8 11  1  0
 11 12  2  0
 12 13  1  0
 13 14  2  0
 14 15  1  0
 15 16  1  0
 16 17  1  0
 17 18  2  0
 18 19  1  0
 19 20  2  0
 20 21  1  0
 21 22  2  0
 15 23  2  0
  4 24  1  0
 24 25  1  0
 24 26  1  0
 24  2  1  0
 23 11  1  0
 22 17  1  0
M  END
