
     RDKit          3D

 18 18  0  0  0  0  0  0  0  0999 V2000
   -1.2308    3.0341    1.5028 C   0  0  0  0  0  0  0  0  0  0  0  0
   -0.7054    1.6850    1.0555 C   0  0  0  0  0  0  0  0  0  0  0  0
   -1.8026    0.8348    0.7715 O   0  0  0  0  0  0  0  0  0  0  0  0
   -2.0003    0.2150   -0.7123 P   0  0  0  0  0  5  0  0  0  0  0  0
   -1.9283    1.4461   -2.2103 S   0  0  0  0  0  0  0  0  0  0  0  0
   -3.4563   -0.4824   -0.5477 O   0  0  0  0  0  0  0  0  0  0  0  0
   -3.6318   -1.5034    0.4197 C   0  0  0  0  0  0  0  0  0  0  0  0
   -5.1149   -1.6689    0.6821 C   0  0  0  0  0  0  0  0  0  0  0  0
   -1.0304   -1.0862   -0.7239 O   0  0  0  0  0  0  0  0  0  0  0  0
    0.3291   -0.9923   -0.7250 C   0  0  0  0  0  0  0  0  0  0  0  0
    1.0179   -1.2564    0.4550 C   0  0  0  0  0  0  0  0  0  0  0  0
    2.4123   -1.1957    0.4686 C   0  0  0  0  0  0  0  0  0  0  0  0
    3.1178   -0.8947   -0.7003 C   0  0  0  0  0  0  0  0  0  0  0  0
    4.9254   -0.8434   -0.7035 S   0  0  0  0  0  4  0  0  0  0  0  0
    5.1062    0.9516   -0.8608 C   0  0  0  0  0  0  0  0  0  0  0  0
    5.3504   -1.2154    0.6881 O   0  0  0  0  0  0  0  0  0  0  0  0
    2.4146   -0.6700   -1.8892 C   0  0  0  0  0  0  0  0  0  0  0  0
    1.0189   -0.7196   -1.9026 C   0  0  0  0  0  0  0  0  0  0  0  0
  1  2  1  0
  2  3  1  0
  3  4  1  0
  4  5  2  0
  4  6  1  0
  6  7  1  0
  7  8  1  0
  4  9  1  0
  9 10  1  0
 10 11  2  0
 11 12  1  0
 12 13  2  0
 13 14  1  0
 14 15  1  1
 14 16  2  0
 13 17  1  0
 17 18  2  0
 18 10  1  0
M  END
