
     RDKit          3D

 24 26  0  0  0  0  0  0  0  0999 V2000
   -2.8076    2.4183    0.5342 C   0  0  0  0  0  0  0  0  0  0  0  0
   -3.1710    0.9711    0.7288 C   0  0  0  0  0  0  0  0  0  0  0  0
   -4.5680    0.7304    1.2278 C   0  0  0  0  0  0  0  0  0  0  0  0
   -2.2862   -0.0104    0.4641 C   0  0  0  0  0  0  0  0  0  0  0  0
   -2.4976   -1.4588    0.6053 C   0  0  2  0  0  0  0  0  0  0  0  0
   -1.8035   -2.4754   -0.2794 C   0  0  2  0  0  0  0  0  0  0  0  0
   -0.8228   -2.1123   -1.3267 C   0  0  0  0  0  0  0  0  0  0  0  0
   -0.9715   -2.4111   -2.5023 O   0  0  0  0  0  0  0  0  0  0  0  0
    0.2561   -1.4829   -0.8001 O   0  0  0  0  0  0  0  0  0  0  0  0
    1.1874   -1.0642   -1.7934 C   0  0  0  0  0  0  0  0  0  0  0  0
    2.1936   -0.2754   -1.1385 N   0  0  0  0  0  0  0  0  0  0  0  0
    2.0488    1.0386   -0.8301 C   0  0  0  0  0  0  0  0  0  0  0  0
    1.1152    1.7825   -1.0664 O   0  0  0  0  0  0  0  0  0  0  0  0
    3.2682    1.4333   -0.1221 C   0  0  0  0  0  0  0  0  0  0  0  0
    4.0606    0.3624   -0.0367 C   0  0  0  0  0  0  0  0  0  0  0  0
    5.3843    0.3326    0.6274 C   0  0  0  0  0  0  0  0  0  0  0  0
    5.5946    1.5982    1.4782 C   0  0  0  0  0  0  0  0  0  0  0  0
    5.0844    2.8696    0.7789 C   0  0  0  0  0  0  0  0  0  0  0  0
    3.5940    2.7786    0.4051 C   0  0  0  0  0  0  0  0  0  0  0  0
    3.3744   -0.7610   -0.6789 C   0  0  0  0  0  0  0  0  0  0  0  0
    3.8235   -1.8892   -0.7593 O   0  0  0  0  0  0  0  0  0  0  0  0
   -3.2959   -2.2205   -0.4420 C   0  0  0  0  0  0  0  0  0  0  0  0
   -3.8021   -1.5170   -1.6816 C   0  0  0  0  0  0  0  0  0  0  0  0
   -4.2378   -3.2915    0.0523 C   0  0  0  0  0  0  0  0  0  0  0  0
  1  2  1  0
  2  3  1  0
  2  4  2  3
  5  4  1  6
  5  6  1  0
  6  7  1  6
  7  8  2  0
  7  9  1  0
  9 10  1  0
 10 11  1  0
 11 12  1  0
 12 13  2  0
 12 14  1  0
 14 15  2  0
 15 16  1  0
 16 17  1  0
 17 18  1  0
 18 19  1  0
 15 20  1  0
 20 21  2  0
  6 22  1  0
 22 23  1  0
 22 24  1  0
 22  5  1  0
 20 11  1  0
 19 14  1  0
M  END
