
     RDKit          3D

 12 13  0  0  0  0  0  0  0  0999 V2000
   -2.0764    0.7548    1.1361 O   0  0  0  0  0  0  0  0  0  0  0  0
   -1.3951    0.7732   -0.1178 C   0  0  2  0  0  0  0  0  0  0  0  0
   -2.0215   -0.2670   -1.0351 C   0  0  0  0  0  0  0  0  0  0  0  0
   -1.5318   -1.6432   -0.6175 C   0  0  0  0  0  0  0  0  0  0  0  0
   -0.1141   -1.7747   -0.7702 O   0  0  0  0  0  0  0  0  0  0  0  0
    0.6176   -0.7415   -0.2504 C   0  0  0  0  0  0  0  0  0  0  0  0
    1.9834   -0.9793   -0.0894 C   0  0  0  0  0  0  0  0  0  0  0  0
    2.8130    0.0174    0.4263 C   0  0  0  0  0  0  0  0  0  0  0  0
    2.2719    1.2530    0.7728 C   0  0  0  0  0  0  0  0  0  0  0  0
    3.2901    2.4831    1.4126 Cl  0  0  0  0  0  0  0  0  0  0  0  0
    0.9100    1.5017    0.6023 C   0  0  0  0  0  0  0  0  0  0  0  0
    0.0715    0.5046    0.0783 C   0  0  0  0  0  0  0  0  0  0  0  0
  2  1  1  1
  2  3  1  0
  3  4  1  0
  4  5  1  0
  5  6  1  0
  6  7  2  0
  7  8  1  0
  8  9  2  0
  9 10  1  0
  9 11  1  0
 11 12  2  0
 12  2  1  0
 12  6  1  0
M  END
