
     RDKit          3D

 24 26  0  0  0  0  0  0  0  0999 V2000
   -4.7666    0.3440   -2.5265 C   0  0  0  0  0  0  0  0  0  0  0  0
   -3.9184    0.8294   -1.3829 C   0  0  0  0  0  0  0  0  0  0  0  0
   -3.8997    2.3216   -1.1973 C   0  0  0  0  0  0  0  0  0  0  0  0
   -3.2389   -0.0315   -0.6003 C   0  0  0  0  0  0  0  0  0  0  0  0
   -2.3779    0.3015    0.5437 C   0  0  2  0  0  0  0  0  0  0  0  0
   -2.2332   -0.7043    1.6688 C   0  0  1  0  0  0  0  0  0  0  0  0
   -0.9246   -0.9617    2.3123 C   0  0  0  0  0  0  0  0  0  0  0  0
   -0.8294   -1.2125    3.5042 O   0  0  0  0  0  0  0  0  0  0  0  0
    0.0992   -0.9106    1.4257 O   0  0  0  0  0  0  0  0  0  0  0  0
    1.3658   -1.1394    2.0372 C   0  0  0  0  0  0  0  0  0  0  0  0
    2.3709   -1.0077    1.0197 N   0  0  0  0  0  0  0  0  0  0  0  0
    2.9366    0.1699    0.6527 C   0  0  0  0  0  0  0  0  0  0  0  0
    2.7540    1.2830    1.1085 O   0  0  0  0  0  0  0  0  0  0  0  0
    3.8552   -0.1376   -0.4455 C   0  0  0  0  0  0  0  0  0  0  0  0
    3.7807   -1.4476   -0.6910 C   0  0  0  0  0  0  0  0  0  0  0  0
    4.5574   -2.1656   -1.7281 C   0  0  0  0  0  0  0  0  0  0  0  0
    5.6872   -1.2746   -2.2751 C   0  0  0  0  0  0  0  0  0  0  0  0
    5.2389    0.1816   -2.4840 C   0  0  0  0  0  0  0  0  0  0  0  0
    4.7011    0.8223   -1.1917 C   0  0  0  0  0  0  0  0  0  0  0  0
    2.8192   -2.0298    0.2478 C   0  0  0  0  0  0  0  0  0  0  0  0
    2.5193   -3.2084    0.2866 O   0  0  0  0  0  0  0  0  0  0  0  0
   -2.9781    0.6024    1.9077 C   0  0  0  0  0  0  0  0  0  0  0  0
   -4.4684    0.5089    2.1335 C   0  0  0  0  0  0  0  0  0  0  0  0
   -2.3223    1.6986    2.7137 C   0  0  0  0  0  0  0  0  0  0  0  0
  1  2  1  0
  2  3  1  0
  2  4  2  3
  5  4  1  6
  5  6  1  0
  6  7  1  1
  7  8  2  0
  7  9  1  0
  9 10  1  0
 10 11  1  0
 11 12  1  0
 12 13  2  0
 12 14  1  0
 14 15  2  0
 15 16  1  0
 16 17  1  0
 17 18  1  0
 18 19  1  0
 15 20  1  0
 20 21  2  0
  6 22  1  0
 22 23  1  0
 22 24  1  0
 22  5  1  0
 20 11  1  0
 19 14  1  0
M  END
