
     RDKit          3D

 25 27  0  0  0  0  0  0  0  0999 V2000
   -4.6225    1.1670   -0.2217 C   0  0  0  0  0  0  0  0  0  0  0  0
   -3.8593   -0.0929   -0.6653 C   0  0  0  0  0  0  0  0  0  0  0  0
   -4.9136   -1.1803   -0.9832 C   0  0  0  0  0  0  0  0  0  0  0  0
   -3.0979    0.2215   -1.9663 C   0  0  0  0  0  0  0  0  0  0  0  0
   -2.8912   -0.6457    0.4331 C   0  0  2  0  0  0  0  0  0  0  0  0
   -3.6440   -1.0008    1.6073 O   0  0  0  0  0  0  0  0  0  0  0  0
   -1.6226    0.1979    0.7709 C   0  0  2  0  0  0  0  0  0  0  0  0
   -0.7500   -0.6024    1.6033 O   0  0  0  0  0  0  0  0  0  0  0  0
    0.5248   -0.6400    1.1133 C   0  0  0  0  0  0  0  0  0  0  0  0
    0.8435   -1.4390    0.0194 C   0  0  0  0  0  0  0  0  0  0  0  0
    2.1586   -1.4668   -0.4520 C   0  0  0  0  0  0  0  0  0  0  0  0
    3.1696   -0.7140    0.1719 C   0  0  0  0  0  0  0  0  0  0  0  0
    4.5553   -0.7488   -0.3248 C   0  0  0  0  0  0  0  0  0  0  0  0
    4.8500   -0.4721   -1.6705 C   0  0  0  0  0  0  0  0  0  0  0  0
    6.1654   -0.5042   -2.1421 C   0  0  0  0  0  0  0  0  0  0  0  0
    7.2096   -0.8152   -1.2749 C   0  0  0  0  0  0  0  0  0  0  0  0
    6.9397   -1.0939    0.0624 C   0  0  0  0  0  0  0  0  0  0  0  0
    5.6240   -1.0603    0.5325 C   0  0  0  0  0  0  0  0  0  0  0  0
    2.8217    0.0617    1.2920 C   0  0  0  0  0  0  0  0  0  0  0  0
    1.5086    0.0927    1.7676 C   0  0  0  0  0  0  0  0  0  0  0  0
   -1.8847    1.4316    1.4968 N   0  0  0  0  0  0  0  0  0  0  0  0
   -1.2924    2.6416    1.2960 C   0  0  0  0  0  0  0  0  0  0  0  0
   -1.7714    3.5137    2.1520 N   0  0  0  0  0  0  0  0  0  0  0  0
   -2.6556    2.7752    2.8852 C   0  0  0  0  0  0  0  0  0  0  0  0
   -2.7679    1.4943    2.5217 N   0  0  0  0  0  0  0  0  0  0  0  0
  1  2  1  0
  2  3  1  0
  2  4  1  0
  2  5  1  0
  5  6  1  1
  5  7  1  0
  7  8  1  1
  8  9  1  0
  9 10  2  0
 10 11  1  0
 11 12  2  0
 12 13  1  0
 13 14  2  0
 14 15  1  0
 15 16  2  0
 16 17  1  0
 17 18  2  0
 12 19  1  0
 19 20  2  0
  7 21  1  0
 21 22  1  0
 22 23  2  0
 23 24  1  0
 24 25  2  0
 20  9  1  0
 25 21  1  0
 18 13  1  0
M  END
