
     RDKit          3D

  8  8  0  0  0  0  0  0  0  0999 V2000
   -2.1281   -0.5874    0.0653 C   0  0  0  0  0  0  0  0  0  0  0  0
   -1.2394    0.6485    0.1163 C   0  0  1  0  0  0  0  0  0  0  0  0
    0.2160    0.2947    0.2521 C   0  0  0  0  0  0  0  0  0  0  0  0
    1.1727    0.0820   -0.7249 C   0  0  0  0  0  0  0  0  0  0  0  0
    2.4485   -0.2475   -0.1818 C   0  0  0  0  0  0  0  0  0  0  0  0
    2.4307   -0.2774    1.1933 C   0  0  0  0  0  0  0  0  0  0  0  0
    0.8863    0.0908    1.8230 S   0  0  0  0  0  0  0  0  0  0  0  0
   -1.4039    1.3997   -1.0861 O   0  0  0  0  0  0  0  0  0  0  0  0
  2  1  1  6
  2  3  1  0
  3  4  2  0
  4  5  1  0
  5  6  2  0
  6  7  1  0
  2  8  1  0
  7  3  1  0
M  END
