
     RDKit          3D

 24 26  0  0  0  0  0  0  0  0999 V2000
   -4.4290    2.5164   -0.3862 C   0  0  0  0  0  0  0  0  0  0  0  0
   -3.3783    1.4505   -0.2305 C   0  0  0  0  0  0  0  0  0  0  0  0
   -2.3268    1.7505    0.8015 C   0  0  0  0  0  0  0  0  0  0  0  0
   -3.4062    0.3294   -0.9776 C   0  0  0  0  0  0  0  0  0  0  0  0
   -2.4611   -0.7962   -0.9405 C   0  0  1  0  0  0  0  0  0  0  0  0
   -2.4771   -1.7329    0.2509 C   0  0  2  0  0  0  0  0  0  0  0  0
   -1.2296   -2.2547    0.8546 C   0  0  0  0  0  0  0  0  0  0  0  0
   -1.1854   -3.3484    1.3975 O   0  0  0  0  0  0  0  0  0  0  0  0
   -0.2013   -1.3789    0.7490 O   0  0  0  0  0  0  0  0  0  0  0  0
    0.9989   -1.8630    1.3437 C   0  0  0  0  0  0  0  0  0  0  0  0
    2.0147   -0.8676    1.1422 N   0  0  0  0  0  0  0  0  0  0  0  0
    2.8209   -0.8072    0.0524 C   0  0  0  0  0  0  0  0  0  0  0  0
    2.8808   -1.5624   -0.8997 O   0  0  0  0  0  0  0  0  0  0  0  0
    3.6546    0.3850    0.2208 C   0  0  0  0  0  0  0  0  0  0  0  0
    3.2982    0.9794    1.3617 C   0  0  0  0  0  0  0  0  0  0  0  0
    3.9044    2.2178    1.9029 C   0  0  0  0  0  0  0  0  0  0  0  0
    5.2043    2.5592    1.1522 C   0  0  0  0  0  0  0  0  0  0  0  0
    5.0848    2.3309   -0.3638 C   0  0  0  0  0  0  0  0  0  0  0  0
    4.6918    0.8837   -0.7118 C   0  0  0  0  0  0  0  0  0  0  0  0
    2.2291    0.1854    1.9710 C   0  0  0  0  0  0  0  0  0  0  0  0
    1.6744    0.4630    3.0178 O   0  0  0  0  0  0  0  0  0  0  0  0
   -2.9507   -2.2279   -1.1081 C   0  0  0  0  0  0  0  0  0  0  0  0
   -4.4219   -2.5410   -1.2415 C   0  0  0  0  0  0  0  0  0  0  0  0
   -2.0709   -3.1591   -1.9091 C   0  0  0  0  0  0  0  0  0  0  0  0
  1  2  1  0
  2  3  1  0
  2  4  2  3
  5  4  1  1
  5  6  1  0
  6  7  1  6
  7  8  2  0
  7  9  1  0
  9 10  1  0
 10 11  1  0
 11 12  1  0
 12 13  2  0
 12 14  1  0
 14 15  2  0
 15 16  1  0
 16 17  1  0
 17 18  1  0
 18 19  1  0
 15 20  1  0
 20 21  2  0
  6 22  1  0
 22 23  1  0
 22 24  1  0
 22  5  1  0
 20 11  1  0
 19 14  1  0
M  END
