
     RDKit          3D

 23 24  0  0  0  0  0  0  0  0999 V2000
    3.3094    1.4754    2.1220 F   0  0  0  0  0  0  0  0  0  0  0  0
    3.7417    0.4912    1.2872 C   0  0  0  0  0  0  0  0  0  0  0  0
    5.0975    0.4743    1.3738 F   0  0  0  0  0  0  0  0  0  0  0  0
    3.2732    0.7422   -0.1528 C   0  0  0  0  0  0  0  0  0  0  0  0
    3.6640   -0.2713   -0.9689 F   0  0  0  0  0  0  0  0  0  0  0  0
    3.8275    1.8755   -0.6503 F   0  0  0  0  0  0  0  0  0  0  0  0
    1.8563    0.8993   -0.2809 O   0  0  0  0  0  0  0  0  0  0  0  0
    1.1446   -0.3318   -0.2996 C   0  0  0  0  0  0  0  0  0  0  0  0
   -0.3676   -0.0537   -0.4283 C   0  0  2  0  0  0  0  0  0  0  0  0
   -0.8999    0.8903    0.6708 C   0  0  0  0  0  0  0  0  0  0  0  0
   -0.8493    2.2891    0.2905 N   0  0  0  0  0  0  0  0  0  0  0  0
   -0.0355    3.2649    0.7726 C   0  0  0  0  0  0  0  0  0  0  0  0
   -0.3496    4.4114    0.2142 N   0  0  0  0  0  0  0  0  0  0  0  0
   -1.3809    4.0761   -0.6155 C   0  0  0  0  0  0  0  0  0  0  0  0
   -1.7304    2.7867   -0.5982 N   0  0  0  0  0  0  0  0  0  0  0  0
   -1.1627   -1.3548   -0.5340 C   0  0  0  0  0  0  0  0  0  0  0  0
   -1.7604   -1.6470   -1.7774 C   0  0  0  0  0  0  0  0  0  0  0  0
   -2.5033   -2.8141   -1.9681 C   0  0  0  0  0  0  0  0  0  0  0  0
   -2.6620   -3.7099   -0.9179 C   0  0  0  0  0  0  0  0  0  0  0  0
   -3.5749   -5.1485   -1.1505 Cl  0  0  0  0  0  0  0  0  0  0  0  0
   -2.0859   -3.4485    0.3207 C   0  0  0  0  0  0  0  0  0  0  0  0
   -1.3414   -2.2793    0.5137 C   0  0  0  0  0  0  0  0  0  0  0  0
   -0.6691   -2.0457    2.0883 Cl  0  0  0  0  0  0  0  0  0  0  0  0
  1  2  1  0
  2  3  1  0
  2  4  1  0
  4  5  1  0
  4  6  1  0
  4  7  1  0
  7  8  1  0
  9  8  1  1
  9 10  1  0
 10 11  1  0
 11 12  1  0
 12 13  2  0
 13 14  1  0
 14 15  2  0
  9 16  1  0
 16 17  2  0
 17 18  1  0
 18 19  2  0
 19 20  1  0
 19 21  1  0
 21 22  2  0
 22 23  1  0
 15 11  1  0
 22 16  1  0
M  END
