
     RDKit          3D

 10 10  0  0  0  0  0  0  0  0999 V2000
   -0.3953    2.2190    0.0532 C   0  0  0  0  0  0  0  0  0  0  0  0
   -0.8558    0.7889   -0.0287 C   0  0  0  0  0  0  0  0  0  0  0  0
   -2.2276    0.5153    0.1133 C   0  0  0  0  0  0  0  0  0  0  0  0
   -2.7108   -0.7903    0.0384 C   0  0  0  0  0  0  0  0  0  0  0  0
   -1.8305   -1.8421   -0.1829 C   0  0  0  0  0  0  0  0  0  0  0  0
   -0.4677   -1.5868   -0.3318 C   0  0  0  0  0  0  0  0  0  0  0  0
    0.0431   -0.2759   -0.2668 C   0  0  0  0  0  0  0  0  0  0  0  0
    1.5375   -0.0500   -0.4091 C   0  0  1  0  0  0  0  0  0  0  0  0
    2.2549   -0.2185    0.9258 C   0  0  0  0  0  0  0  0  0  0  0  0
    2.0885   -0.9752   -1.3486 O   0  0  0  0  0  0  0  0  0  0  0  0
  1  2  1  0
  2  3  2  0
  3  4  1  0
  4  5  2  0
  5  6  1  0
  6  7  2  0
  7  8  1  0
  8  9  1  1
  8 10  1  0
  7  2  1  0
M  END
