
     RDKit          3D

 24 26  0  0  0  0  0  0  0  0999 V2000
   -5.5438   -1.5640   -1.0936 C   0  0  0  0  0  0  0  0  0  0  0  0
   -4.4436   -2.3214   -0.4034 C   0  0  0  0  0  0  0  0  0  0  0  0
   -4.7775   -3.7460   -0.0539 C   0  0  0  0  0  0  0  0  0  0  0  0
   -3.2410   -1.7908   -0.1066 C   0  0  0  0  0  0  0  0  0  0  0  0
   -2.7804   -0.4239   -0.3915 C   0  0  2  0  0  0  0  0  0  0  0  0
   -1.7338    0.2006    0.5096 C   0  0  1  0  0  0  0  0  0  0  0  0
   -0.6260    1.0024   -0.0625 C   0  0  0  0  0  0  0  0  0  0  0  0
   -0.4027    1.0686   -1.2611 O   0  0  0  0  0  0  0  0  0  0  0  0
    0.0685    1.6310    0.9157 O   0  0  0  0  0  0  0  0  0  0  0  0
    1.1448    2.4514    0.4553 C   0  0  0  0  0  0  0  0  0  0  0  0
    2.2983    1.6541    0.1411 N   0  0  0  0  0  0  0  0  0  0  0  0
    2.9411    0.8515    1.0276 C   0  0  0  0  0  0  0  0  0  0  0  0
    2.6533    0.5922    2.1812 O   0  0  0  0  0  0  0  0  0  0  0  0
    4.1362    0.3518    0.3445 C   0  0  0  0  0  0  0  0  0  0  0  0
    4.2073    0.9482   -0.8469 C   0  0  0  0  0  0  0  0  0  0  0  0
    5.2947    0.7546   -1.8340 C   0  0  0  0  0  0  0  0  0  0  0  0
    6.4865    0.0199   -1.1932 C   0  0  0  0  0  0  0  0  0  0  0  0
    6.0424   -1.1203   -0.2619 C   0  0  0  0  0  0  0  0  0  0  0  0
    5.1139   -0.6316    0.8645 C   0  0  0  0  0  0  0  0  0  0  0  0
    3.0675    1.8599   -0.9602 C   0  0  0  0  0  0  0  0  0  0  0  0
    2.9248    2.6719   -1.8551 O   0  0  0  0  0  0  0  0  0  0  0  0
   -3.1620    0.7295    0.5216 C   0  0  0  0  0  0  0  0  0  0  0  0
   -3.4773    2.0488   -0.1412 C   0  0  0  0  0  0  0  0  0  0  0  0
   -3.9711    0.4856    1.7738 C   0  0  0  0  0  0  0  0  0  0  0  0
  1  2  1  0
  2  3  1  0
  2  4  2  3
  5  4  1  1
  5  6  1  0
  6  7  1  6
  7  8  2  0
  7  9  1  0
  9 10  1  0
 10 11  1  0
 11 12  1  0
 12 13  2  0
 12 14  1  0
 14 15  2  0
 15 16  1  0
 16 17  1  0
 17 18  1  0
 18 19  1  0
 15 20  1  0
 20 21  2  0
  6 22  1  0
 22 23  1  0
 22 24  1  0
 22  5  1  0
 20 11  1  0
 19 14  1  0
M  END
