
     RDKit          3D

 22 23  0  0  0  0  0  0  0  0999 V2000
    6.1320    0.9902   -1.6605 C   0  0  0  0  0  0  0  0  0  0  0  0
    5.0003    0.2004   -1.2911 O   0  0  0  0  0  0  0  0  0  0  0  0
    4.2993    0.6984   -0.2260 C   0  0  0  0  0  0  0  0  0  0  0  0
    4.5871    1.7315    0.3644 O   0  0  0  0  0  0  0  0  0  0  0  0
    3.1040   -0.2112    0.0794 C   0  0  1  0  0  0  0  0  0  0  0  0
    3.6113   -1.5708    0.5491 C   0  0  0  0  0  0  0  0  0  0  0  0
    2.3333    0.3894    1.1226 O   0  0  0  0  0  0  0  0  0  0  0  0
    0.9813    0.1991    1.1455 C   0  0  0  0  0  0  0  0  0  0  0  0
    0.3011    1.0115    2.0581 C   0  0  0  0  0  0  0  0  0  0  0  0
   -1.0851    0.9237    2.1967 C   0  0  0  0  0  0  0  0  0  0  0  0
   -1.8010    0.0260    1.4096 C   0  0  0  0  0  0  0  0  0  0  0  0
   -3.1612   -0.0365    1.6074 O   0  0  0  0  0  0  0  0  0  0  0  0
   -3.9526   -0.0349    0.4794 C   0  0  0  0  0  0  0  0  0  0  0  0
   -3.8497    0.9933   -0.4656 C   0  0  0  0  0  0  0  0  0  0  0  0
   -4.6895    0.9990   -1.5807 C   0  0  0  0  0  0  0  0  0  0  0  0
   -5.6374   -0.0119   -1.7398 C   0  0  0  0  0  0  0  0  0  0  0  0
   -6.6694   -0.0008   -3.1165 Cl  0  0  0  0  0  0  0  0  0  0  0  0
   -5.7605   -1.0274   -0.7931 C   0  0  0  0  0  0  0  0  0  0  0  0
   -4.9209   -1.0336    0.3220 C   0  0  0  0  0  0  0  0  0  0  0  0
   -5.0959   -2.3036    1.4775 Cl  0  0  0  0  0  0  0  0  0  0  0  0
   -1.1290   -0.8129    0.5185 C   0  0  0  0  0  0  0  0  0  0  0  0
    0.2613   -0.7224    0.3841 C   0  0  0  0  0  0  0  0  0  0  0  0
  1  2  1  0
  2  3  1  0
  3  4  2  0
  3  5  1  0
  5  6  1  1
  5  7  1  0
  7  8  1  0
  8  9  2  0
  9 10  1  0
 10 11  2  0
 11 12  1  0
 12 13  1  0
 13 14  2  0
 14 15  1  0
 15 16  2  0
 16 17  1  0
 16 18  1  0
 18 19  2  0
 19 20  1  0
 11 21  1  0
 21 22  2  0
 22  8  1  0
 19 13  1  0
M  END
