
     RDKit          3D

 24 26  0  0  0  0  0  0  0  0999 V2000
   -4.7000   -0.9400    0.6579 C   0  0  0  0  0  0  0  0  0  0  0  0
   -3.2220   -1.1416    0.4733 C   0  0  0  0  0  0  0  0  0  0  0  0
   -2.7467   -2.5566    0.6652 C   0  0  0  0  0  0  0  0  0  0  0  0
   -2.3601   -0.1545    0.1586 C   0  0  0  0  0  0  0  0  0  0  0  0
   -2.6755    1.2659   -0.0556 C   0  0  1  0  0  0  0  0  0  0  0  0
   -1.8872    2.1410   -1.0102 C   0  0  1  0  0  0  0  0  0  0  0  0
   -0.7134    1.6637   -1.7746 C   0  0  0  0  0  0  0  0  0  0  0  0
   -0.6652    1.6899   -2.9955 O   0  0  0  0  0  0  0  0  0  0  0  0
    0.2874    1.2663   -0.9511 O   0  0  0  0  0  0  0  0  0  0  0  0
    1.4050    0.7387   -1.6596 C   0  0  0  0  0  0  0  0  0  0  0  0
    2.3376    0.2391   -0.6880 N   0  0  0  0  0  0  0  0  0  0  0  0
    2.2272   -0.9682   -0.0775 C   0  0  0  0  0  0  0  0  0  0  0  0
    1.3935   -1.8387   -0.2455 O   0  0  0  0  0  0  0  0  0  0  0  0
    3.3369   -1.0530    0.8743 C   0  0  0  0  0  0  0  0  0  0  0  0
    4.0298    0.0860    0.8019 C   0  0  0  0  0  0  0  0  0  0  0  0
    5.2372    0.4016    1.6001 C   0  0  0  0  0  0  0  0  0  0  0  0
    5.7738   -0.8617    2.2973 C   0  0  0  0  0  0  0  0  0  0  0  0
    4.6478   -1.7390    2.8699 C   0  0  0  0  0  0  0  0  0  0  0  0
    3.6364   -2.1750    1.7939 C   0  0  0  0  0  0  0  0  0  0  0  0
    3.3915    0.9412   -0.2010 C   0  0  0  0  0  0  0  0  0  0  0  0
    3.7737    2.0569   -0.4999 O   0  0  0  0  0  0  0  0  0  0  0  0
   -3.3089    1.7218   -1.3614 C   0  0  0  0  0  0  0  0  0  0  0  0
   -4.3834    2.7786   -1.2742 C   0  0  0  0  0  0  0  0  0  0  0  0
   -3.5389    0.7378   -2.4867 C   0  0  0  0  0  0  0  0  0  0  0  0
  1  2  1  0
  2  3  1  0
  2  4  2  3
  5  4  1  6
  5  6  1  0
  6  7  1  6
  7  8  2  0
  7  9  1  0
  9 10  1  0
 10 11  1  0
 11 12  1  0
 12 13  2  0
 12 14  1  0
 14 15  2  0
 15 16  1  0
 16 17  1  0
 17 18  1  0
 18 19  1  0
 15 20  1  0
 20 21  2  0
  6 22  1  0
 22 23  1  0
 22 24  1  0
 22  5  1  0
 20 11  1  0
 19 14  1  0
M  END
