
     RDKit          3D

 15 16  0  0  0  0  0  0  0  0999 V2000
   -3.3002   -1.4372    1.1803 C   0  0  0  0  0  0  0  0  0  0  0  0
   -3.1234   -0.1743    0.5718 O   0  0  0  0  0  0  0  0  0  0  0  0
   -1.6353    0.4450    0.6308 P   0  0  0  0  0  5  0  0  0  0  0  0
   -1.0290    0.4773    2.0005 O   0  0  0  0  0  0  0  0  0  0  0  0
   -1.7954    1.8942   -0.0601 O   0  0  0  0  0  0  0  0  0  0  0  0
   -2.4709    1.9789   -1.2977 C   0  0  0  0  0  0  0  0  0  0  0  0
   -0.8193   -0.4250   -0.4616 O   0  0  0  0  0  0  0  0  0  0  0  0
    0.4239   -0.2690   -0.7199 C   0  0  0  0  0  0  0  0  0  0  0  0
    1.2730   -0.7419   -1.6607 C   0  0  0  0  0  0  0  0  0  0  0  0
    1.0481   -1.8397   -3.0360 Cl  0  0  0  0  0  0  0  0  0  0  0  0
    2.4581    0.0609   -1.1665 C   0  0  2  0  0  0  0  0  0  0  0  0
    3.5304   -0.7253   -0.5189 C   0  0  0  0  0  0  0  0  0  0  0  0
    3.3582   -0.7439    0.8079 C   0  0  0  0  0  0  0  0  0  0  0  0
    2.1395    0.0073    1.2616 C   0  0  0  0  0  0  0  0  0  0  0  0
    1.5226    0.5565   -0.0365 C   0  0  2  0  0  0  0  0  0  0  0  0
  1  2  1  0
  2  3  1  0
  3  4  2  0
  3  5  1  0
  5  6  1  0
  3  7  1  0
  7  8  1  0
  8  9  2  0
  9 10  1  0
  9 11  1  0
 11 12  1  1
 12 13  2  0
 13 14  1  0
 15 14  1  1
 15  8  1  0
 15 11  1  0
M  END
