
     RDKit          3D

 15 16  0  0  0  0  0  0  0  0999 V2000
   -3.3928   -1.7660    0.9873 C   0  0  0  0  0  0  0  0  0  0  0  0
   -2.8984   -0.4548    1.1654 O   0  0  0  0  0  0  0  0  0  0  0  0
   -1.9211    0.1063    0.0075 P   0  0  0  0  0  5  0  0  0  0  0  0
   -2.4833   -0.0340   -1.3740 O   0  0  0  0  0  0  0  0  0  0  0  0
   -1.6325    1.6132    0.5011 O   0  0  0  0  0  0  0  0  0  0  0  0
   -2.6522    2.5587    0.2584 C   0  0  0  0  0  0  0  0  0  0  0  0
   -0.5397   -0.6801    0.2954 O   0  0  0  0  0  0  0  0  0  0  0  0
    0.5748   -0.4858   -0.3015 C   0  0  0  0  0  0  0  0  0  0  0  0
    1.0813    0.3276   -1.2595 C   0  0  0  0  0  0  0  0  0  0  0  0
    0.4001    1.6363   -2.2467 Cl  0  0  0  0  0  0  0  0  0  0  0  0
    2.4704   -0.2753   -1.2053 C   0  0  1  0  0  0  0  0  0  0  0  0
    3.5030    0.5646   -0.5573 C   0  0  0  0  0  0  0  0  0  0  0  0
    3.6440    0.2215    0.7288 C   0  0  0  0  0  0  0  0  0  0  0  0
    2.7250   -0.8880    1.1524 C   0  0  0  0  0  0  0  0  0  0  0  0
    1.9127   -1.2117   -0.1115 C   0  0  1  0  0  0  0  0  0  0  0  0
  1  2  1  0
  2  3  1  0
  3  4  2  0
  3  5  1  0
  5  6  1  0
  3  7  1  0
  7  8  1  0
  8  9  2  0
  9 10  1  0
  9 11  1  0
 11 12  1  1
 12 13  2  0
 13 14  1  0
 15 14  1  1
 15  8  1  0
 15 11  1  0
M  END
