
     RDKit          3D

 13 14  0  0  0  0  0  0  0  0999 V2000
   -3.3667   -0.1203   -1.0998 C   0  0  0  0  0  0  0  0  0  0  0  0
   -2.7363   -0.1685    0.2855 C   0  0  2  0  0  0  0  0  0  0  0  0
   -1.2588    0.1562    0.2646 C   0  0  0  0  0  0  0  0  0  0  0  0
   -0.3355   -0.7181   -0.3333 C   0  0  0  0  0  0  0  0  0  0  0  0
    1.0388   -0.4268   -0.3573 C   0  0  0  0  0  0  0  0  0  0  0  0
    1.9628   -1.3004   -0.9534 C   0  0  0  0  0  0  0  0  0  0  0  0
    3.3250   -0.9965   -0.9686 C   0  0  0  0  0  0  0  0  0  0  0  0
    3.7807    0.1836   -0.3886 C   0  0  0  0  0  0  0  0  0  0  0  0
    2.8751    1.0626    0.2077 C   0  0  0  0  0  0  0  0  0  0  0  0
    1.5015    0.7710    0.2312 C   0  0  0  0  0  0  0  0  0  0  0  0
    0.5776    1.6433    0.8261 C   0  0  0  0  0  0  0  0  0  0  0  0
   -0.7864    1.3399    0.8425 C   0  0  0  0  0  0  0  0  0  0  0  0
   -2.9443   -1.4662    0.8407 O   0  0  0  0  0  0  0  0  0  0  0  0
  2  1  1  6
  2  3  1  0
  3  4  2  0
  4  5  1  0
  5  6  2  0
  6  7  1  0
  7  8  2  0
  8  9  1  0
  9 10  2  0
 10 11  1  0
 11 12  2  0
  2 13  1  0
 12  3  1  0
 10  5  1  0
M  END
