
     RDKit          3D

  8  7  0  0  0  0  0  0  0  0999 V2000
   -2.5981   -0.4513    1.1316 C   0  0  0  0  0  0  0  0  0  0  0  0
   -2.2368   -0.2679   -0.3364 C   0  0  0  0  0  0  0  0  0  0  0  0
   -0.8548    0.3728   -0.5995 C   0  0  1  0  0  0  0  0  0  0  0  0
   -0.8058    1.7995   -0.0473 C   0  0  0  0  0  0  0  0  0  0  0  0
    0.2850   -0.5296   -0.0710 C   0  0  0  0  0  0  0  0  0  0  0  0
    1.6914   -0.2001   -0.6104 C   0  0  2  0  0  0  0  0  0  0  0  0
    2.6595   -1.3460   -0.3070 C   0  0  0  0  0  0  0  0  0  0  0  0
    2.2211    1.0313   -0.0275 N   0  0  0  0  0  0  0  0  0  0  0  0
  1  2  1  0
  2  3  1  0
  3  4  1  1
  3  5  1  0
  5  6  1  0
  6  7  1  1
  6  8  1  0
M  END
