
     RDKit          3D

 26 28  0  0  0  0  0  0  0  0999 V2000
   -2.7111    1.3371    2.7321 C   0  0  0  0  0  0  0  0  0  0  0  0
   -3.5280    1.1251    1.4798 C   0  0  0  0  0  0  0  0  0  0  0  0
   -4.9727    1.5372    1.6550 C   0  0  0  0  0  0  0  0  0  0  0  0
   -3.2587   -0.0590    0.5614 C   0  0  2  0  0  0  0  0  0  0  0  0
   -2.2172   -1.0458    0.8997 C   0  0  0  0  0  0  0  0  0  0  0  0
   -2.3307   -2.0876    1.7395 C   0  0  0  0  0  0  0  0  0  0  0  0
   -0.9898   -3.1418    2.0142 Cl  0  0  0  0  0  0  0  0  0  0  0  0
   -3.7992   -2.4279    2.5786 Cl  0  0  0  0  0  0  0  0  0  0  0  0
   -2.9162    1.3443    0.1035 C   0  0  2  0  0  0  0  0  0  0  0  0
   -1.5165    1.7539   -0.1628 C   0  0  0  0  0  0  0  0  0  0  0  0
   -0.6683    1.8912    0.7035 O   0  0  0  0  0  0  0  0  0  0  0  0
   -1.3212    1.9016   -1.4984 O   0  0  0  0  0  0  0  0  0  0  0  0
    0.0336    2.0966   -1.9080 C   0  0  0  0  0  0  0  0  0  0  0  0
    0.6027    0.7650   -2.3243 C   0  0  0  0  0  0  0  0  0  0  0  0
    0.3699    0.2624   -3.6134 C   0  0  0  0  0  0  0  0  0  0  0  0
    0.8490   -0.9959   -3.9808 C   0  0  0  0  0  0  0  0  0  0  0  0
    1.5612   -1.7655   -3.0612 C   0  0  0  0  0  0  0  0  0  0  0  0
    1.8026   -1.2742   -1.7784 C   0  0  0  0  0  0  0  0  0  0  0  0
    2.4614   -2.1169   -0.9106 O   0  0  0  0  0  0  0  0  0  0  0  0
    3.3834   -1.5624   -0.0585 C   0  0  0  0  0  0  0  0  0  0  0  0
    3.3062   -1.9221    1.2864 C   0  0  0  0  0  0  0  0  0  0  0  0
    4.2398   -1.4186    2.1928 C   0  0  0  0  0  0  0  0  0  0  0  0
    5.2536   -0.5671    1.7519 C   0  0  0  0  0  0  0  0  0  0  0  0
    5.3419   -0.2262    0.4017 C   0  0  0  0  0  0  0  0  0  0  0  0
    4.4120   -0.7317   -0.5087 C   0  0  0  0  0  0  0  0  0  0  0  0
    1.3116   -0.0201   -1.4037 C   0  0  0  0  0  0  0  0  0  0  0  0
  1  2  1  0
  2  3  1  0
  2  4  1  0
  4  5  1  1
  5  6  2  3
  6  7  1  0
  6  8  1  0
  4  9  1  0
  9 10  1  1
 10 11  2  0
 10 12  1  0
 12 13  1  0
 13 14  1  0
 14 15  2  0
 15 16  1  0
 16 17  2  0
 17 18  1  0
 18 19  1  0
 19 20  1  0
 20 21  2  0
 21 22  1  0
 22 23  2  0
 23 24  1  0
 24 25  2  0
 18 26  2  0
  9  2  1  0
 26 14  1  0
 25 20  1  0
M  END
