
     RDKit          3D

 10 11  0  0  0  0  0  0  0  0999 V2000
   -2.1295   -1.0150    0.8994 C   0  0  0  0  0  0  0  0  0  0  0  0
   -1.5193    0.3021    0.4175 C   0  0  0  0  0  0  0  0  0  0  0  0
   -2.5033    1.0177   -0.5134 C   0  0  0  0  0  0  0  0  0  0  0  0
   -0.1607    0.1785   -0.2586 C   0  0  1  0  0  0  0  0  0  0  0  0
    0.6990    1.4347   -0.2689 C   0  0  0  0  0  0  0  0  0  0  0  0
    2.0488    1.0218    0.3385 C   0  0  0  0  0  0  0  0  0  0  0  0
    2.1211   -0.4699    0.1146 C   0  0  0  0  0  0  0  0  0  0  0  0
    3.2671   -1.1562    0.0298 C   0  0  0  0  0  0  0  0  0  0  0  0
    0.7649   -1.0081   -0.0584 C   0  0  2  0  0  0  0  0  0  0  0  0
    0.0566   -0.8333   -1.3692 C   0  0  0  0  0  0  0  0  0  0  0  0
  1  2  1  0
  2  3  1  0
  4  2  1  1
  4  5  1  0
  5  6  1  0
  6  7  1  0
  7  8  2  0
  7  9  1  0
  9 10  1  6
  9  4  1  0
 10  4  1  0
M  END
