
     RDKit          3D

 15 16  0  0  0  0  0  0  0  0999 V2000
    2.5027   -1.8883   -1.3171 C   0  0  0  0  0  0  0  0  0  0  0  0
    2.2287   -1.9584    0.0651 O   0  0  0  0  0  0  0  0  0  0  0  0
    2.0193   -0.5880    0.8867 P   0  0  0  0  0  5  0  0  0  0  0  0
    1.8324   -0.7448    2.3647 O   0  0  0  0  0  0  0  0  0  0  0  0
    3.3191    0.2842    0.4850 O   0  0  0  0  0  0  0  0  0  0  0  0
    3.4923    1.5038    1.1770 C   0  0  0  0  0  0  0  0  0  0  0  0
    0.8223    0.1861    0.1199 O   0  0  0  0  0  0  0  0  0  0  0  0
   -0.4122   -0.1386    0.1640 C   0  0  0  0  0  0  0  0  0  0  0  0
   -1.1966   -1.2380    0.4714 C   0  0  0  0  0  0  0  0  0  0  0  0
   -0.8644   -2.8430    1.1330 Cl  0  0  0  0  0  0  0  0  0  0  0  0
   -2.3602   -0.2897    0.6174 C   0  0  2  0  0  0  0  0  0  0  0  0
   -3.7355   -0.2456    0.1136 C   0  0  0  0  0  0  0  0  0  0  0  0
   -3.8578    0.9686   -0.4618 C   0  0  0  0  0  0  0  0  0  0  0  0
   -2.4895    1.6499   -0.5686 C   0  0  0  0  0  0  0  0  0  0  0  0
   -1.6153    0.4073   -0.5875 C   0  0  1  0  0  0  0  0  0  0  0  0
  1  2  1  0
  2  3  1  0
  3  4  2  0
  3  5  1  0
  5  6  1  0
  3  7  1  0
  7  8  1  0
  8  9  2  0
  9 10  1  0
  9 11  1  0
 11 12  1  6
 12 13  2  0
 13 14  1  0
 15 14  1  1
 15  8  1  0
 15 11  1  0
M  END
