
     RDKit          3D

 12 11  0  0  0  0  0  0  0  0999 V2000
   -2.6173    0.8545    0.8026 C   0  0  0  0  0  0  0  0  0  0  0  0
   -2.3247   -0.2183   -0.2526 C   0  0  2  0  0  0  0  0  0  0  0  0
   -3.3771   -1.3371   -0.1893 C   0  0  0  0  0  0  0  0  0  0  0  0
   -4.7219   -0.8582   -0.6738 C   0  0  0  0  0  0  0  0  0  0  0  0
   -5.7559   -0.9871   -0.0258 O   0  0  0  0  0  0  0  0  0  0  0  0
   -0.9188   -0.8286   -0.0764 C   0  0  0  0  0  0  0  0  0  0  0  0
    0.2179    0.1820   -0.2708 C   0  0  0  0  0  0  0  0  0  0  0  0
    1.5875   -0.5108   -0.2182 C   0  0  0  0  0  0  0  0  0  0  0  0
    2.7845    0.4188   -0.5035 C   0  0  0  0  0  0  0  0  0  0  0  0
    2.8810    1.5731    0.4965 C   0  0  0  0  0  0  0  0  0  0  0  0
    4.0825   -0.3954   -0.4894 C   0  0  0  0  0  0  0  0  0  0  0  0
    2.6237    0.9671   -1.8137 O   0  0  0  0  0  0  0  0  0  0  0  0
  2  1  1  1
  2  3  1  0
  3  4  1  0
  4  5  2  0
  2  6  1  0
  6  7  1  0
  7  8  1  0
  8  9  1  0
  9 10  1  0
  9 11  1  0
  9 12  1  0
M  END
