
     RDKit          3D

 24 26  0  0  0  0  0  0  0  0999 V2000
    4.2194    3.1729    0.7352 C   0  0  0  0  0  0  0  0  0  0  0  0
    3.2910    2.1851    0.0828 C   0  0  0  0  0  0  0  0  0  0  0  0
    1.8279    2.5026    0.2309 C   0  0  0  0  0  0  0  0  0  0  0  0
    3.7669    1.1113   -0.5785 C   0  0  0  0  0  0  0  0  0  0  0  0
    2.9898    0.0679   -1.2623 C   0  0  2  0  0  0  0  0  0  0  0  0
    2.1767   -0.9045   -0.4305 C   0  0  1  0  0  0  0  0  0  0  0  0
    0.8018   -1.2764   -0.8432 C   0  0  0  0  0  0  0  0  0  0  0  0
    0.2843   -0.8824   -1.8773 O   0  0  0  0  0  0  0  0  0  0  0  0
    0.2267   -2.0906    0.0744 O   0  0  0  0  0  0  0  0  0  0  0  0
   -1.1162   -2.4783   -0.2242 C   0  0  0  0  0  0  0  0  0  0  0  0
   -2.0356   -1.4223    0.1016 N   0  0  0  0  0  0  0  0  0  0  0  0
   -3.0796   -1.0702   -0.6939 C   0  0  0  0  0  0  0  0  0  0  0  0
   -3.4051   -1.5177   -1.7778 O   0  0  0  0  0  0  0  0  0  0  0  0
   -3.8407   -0.0600    0.0436 C   0  0  0  0  0  0  0  0  0  0  0  0
   -3.2985    0.0565    1.2572 C   0  0  0  0  0  0  0  0  0  0  0  0
   -3.8009    0.9413    2.3335 C   0  0  0  0  0  0  0  0  0  0  0  0
   -5.2029    1.4747    1.9890 C   0  0  0  0  0  0  0  0  0  0  0  0
   -5.3375    1.8666    0.5080 C   0  0  0  0  0  0  0  0  0  0  0  0
   -5.0153    0.6994   -0.4424 C   0  0  0  0  0  0  0  0  0  0  0  0
   -2.1728   -0.8770    1.3376 C   0  0  0  0  0  0  0  0  0  0  0  0
   -1.5416   -1.1025    2.3532 O   0  0  0  0  0  0  0  0  0  0  0  0
    3.4039   -1.3949   -1.1850 C   0  0  0  0  0  0  0  0  0  0  0  0
    3.2331   -2.2236   -2.4362 C   0  0  0  0  0  0  0  0  0  0  0  0
    4.5858   -1.8247   -0.3484 C   0  0  0  0  0  0  0  0  0  0  0  0
  1  2  1  0
  2  3  1  0
  2  4  2  3
  5  4  1  1
  5  6  1  0
  6  7  1  6
  7  8  2  0
  7  9  1  0
  9 10  1  0
 10 11  1  0
 11 12  1  0
 12 13  2  0
 12 14  1  0
 14 15  2  0
 15 16  1  0
 16 17  1  0
 17 18  1  0
 18 19  1  0
 15 20  1  0
 20 21  2  0
  6 22  1  0
 22 23  1  0
 22 24  1  0
 22  5  1  0
 20 11  1  0
 19 14  1  0
M  END
