
     RDKit          3D

 11 11  0  0  0  0  0  0  0  0999 V2000
    2.2107   -0.6387    1.3012 C   0  0  0  0  0  0  0  0  0  0  0  0
    2.1957    0.2468    0.0607 C   0  0  0  0  0  0  0  0  0  0  0  0
    1.1363   -0.1287   -0.9834 C   0  0  2  0  0  0  0  0  0  0  0  0
   -0.2896    0.1037   -0.5221 C   0  0  0  0  0  0  0  0  0  0  0  0
   -0.8961    1.3524   -0.7345 C   0  0  0  0  0  0  0  0  0  0  0  0
   -2.2058    1.5900   -0.3092 C   0  0  0  0  0  0  0  0  0  0  0  0
   -2.9181    0.5825    0.3366 C   0  0  0  0  0  0  0  0  0  0  0  0
   -2.3317   -0.6597    0.5631 C   0  0  0  0  0  0  0  0  0  0  0  0
   -1.0225   -0.8970    0.1372 C   0  0  0  0  0  0  0  0  0  0  0  0
   -4.5302    0.8762    0.8606 Cl  0  0  0  0  0  0  0  0  0  0  0  0
    1.3268   -1.4775   -1.4064 O   0  0  0  0  0  0  0  0  0  0  0  0
  1  2  1  0
  2  3  1  0
  3  4  1  0
  4  5  2  0
  5  6  1  0
  6  7  2  0
  7  8  1  0
  8  9  2  0
  7 10  1  0
  3 11  1  1
  9  4  1  0
M  END
