
     RDKit          3D

 26 27  0  0  0  0  0  0  0  0999 V2000
   -3.5427   -2.9403    2.6114 N   0  0  0  0  0  0  0  0  0  0  0  0
   -2.8621   -2.3142    1.9091 C   0  0  0  0  0  0  0  0  0  0  0  0
   -2.0976   -1.5182    0.9954 C   0  0  0  0  0  0  0  0  0  0  0  0
   -0.7708   -1.4331    1.1407 N   0  0  0  0  0  0  0  0  0  0  0  0
   -0.3686   -0.6168    0.1282 N   0  0  0  0  0  0  0  0  0  0  0  0
    0.9880   -0.2426    0.0226 C   0  0  0  0  0  0  0  0  0  0  0  0
    1.3599    1.1101    0.0348 C   0  0  0  0  0  0  0  0  0  0  0  0
    0.2462    2.4087    0.2930 Cl  0  0  0  0  0  0  0  0  0  0  0  0
    2.7120    1.4648   -0.0624 C   0  0  0  0  0  0  0  0  0  0  0  0
    3.7103    0.4847   -0.1526 C   0  0  0  0  0  0  0  0  0  0  0  0
    5.1632    0.8762   -0.2770 C   0  0  0  0  0  0  0  0  0  0  0  0
    5.4567    2.0347    0.3732 F   0  0  0  0  0  0  0  0  0  0  0  0
    5.5297    1.0660   -1.5727 F   0  0  0  0  0  0  0  0  0  0  0  0
    6.0120   -0.0614    0.2238 F   0  0  0  0  0  0  0  0  0  0  0  0
    3.3293   -0.8639   -0.1581 C   0  0  0  0  0  0  0  0  0  0  0  0
    1.9806   -1.2312   -0.0654 C   0  0  0  0  0  0  0  0  0  0  0  0
    1.6351   -2.9232   -0.1855 Cl  0  0  0  0  0  0  0  0  0  0  0  0
   -1.4345   -0.2438   -0.6931 C   0  0  0  0  0  0  0  0  0  0  0  0
   -1.3194    0.4807   -1.8341 N   0  0  0  0  0  0  0  0  0  0  0  0
   -2.5543   -0.7908   -0.1113 C   0  0  0  0  0  0  0  0  0  0  0  0
   -4.2409   -0.6588   -0.6832 S   0  0  0  0  0  4  0  0  0  0  0  0
   -4.1736   -0.2276   -2.1247 O   0  0  0  0  0  0  0  0  0  0  0  0
   -4.7180    0.7441    0.3669 C   0  0  0  0  0  0  0  0  0  0  0  0
   -4.5856    0.4341    1.6835 F   0  0  0  0  0  0  0  0  0  0  0  0
   -3.9682    1.8516    0.1455 F   0  0  0  0  0  0  0  0  0  0  0  0
   -6.0157    1.0927    0.1776 F   0  0  0  0  0  0  0  0  0  0  0  0
  1  2  3  0
  2  3  1  0
  3  4  2  0
  4  5  1  0
  5  6  1  0
  6  7  2  0
  7  8  1  0
  7  9  1  0
  9 10  2  0
 10 11  1  0
 11 12  1  0
 11 13  1  0
 11 14  1  0
 10 15  1  0
 15 16  2  0
 16 17  1  0
  5 18  1  0
 18 19  1  0
 18 20  2  0
 20 21  1  0
 21 22  2  0
 21 23  1  1
 23 24  1  0
 23 25  1  0
 23 26  1  0
 20  3  1  0
 16  6  1  0
M  END
