
     RDKit          3D

  9  9  0  0  0  0  0  0  0  0999 V2000
   -1.8897    0.5890    1.5724 C   0  0  0  0  0  0  0  0  0  0  0  0
   -1.3923   -0.5565    0.7011 C   0  0  2  0  0  0  0  0  0  0  0  0
   -0.0726   -0.2476    0.0284 C   0  0  0  0  0  0  0  0  0  0  0  0
    1.0869   -0.9495    0.3886 C   0  0  0  0  0  0  0  0  0  0  0  0
    2.3071   -0.6697   -0.2299 C   0  0  0  0  0  0  0  0  0  0  0  0
    2.3828    0.3138   -1.2141 C   0  0  0  0  0  0  0  0  0  0  0  0
    1.2393    1.0194   -1.5815 C   0  0  0  0  0  0  0  0  0  0  0  0
    0.0188    0.7411   -0.9643 C   0  0  0  0  0  0  0  0  0  0  0  0
   -2.3849   -0.8523   -0.2805 O   0  0  0  0  0  0  0  0  0  0  0  0
  2  1  1  6
  2  3  1  0
  3  4  2  0
  4  5  1  0
  5  6  2  0
  6  7  1  0
  7  8  2  0
  2  9  1  0
  8  3  1  0
M  END
