
     RDKit          3D

 18 18  0  0  0  0  0  0  0  0999 V2000
    3.9206    0.3611    0.6108 C   0  0  0  0  0  0  0  0  0  0  0  0
    3.3183   -0.6370   -0.3681 C   0  0  0  0  0  0  0  0  0  0  0  0
    2.3327   -1.6158    0.2680 C   0  0  0  0  0  0  0  0  0  0  0  0
    0.8491   -0.8307    0.9552 S   0  0  0  0  0  0  0  0  0  0  0  0
   -0.1612   -0.0929   -0.7223 P   0  0  2  0  0  5  0  0  0  0  0  0
   -0.1487   -1.1167   -1.8244 O   0  0  0  0  0  0  0  0  0  0  0  0
    0.5231    1.2918   -1.2112 O   0  0  0  0  0  0  0  0  0  0  0  0
    0.4374    2.4273   -0.3679 C   0  0  0  0  0  0  0  0  0  0  0  0
    1.4239    3.4670   -0.8582 C   0  0  0  0  0  0  0  0  0  0  0  0
   -1.6582    0.3971   -0.3422 O   0  0  0  0  0  0  0  0  0  0  0  0
   -2.5414   -0.4564    0.2576 C   0  0  0  0  0  0  0  0  0  0  0  0
   -2.9809   -1.5981   -0.4114 C   0  0  0  0  0  0  0  0  0  0  0  0
   -3.8942   -2.4531    0.2082 C   0  0  0  0  0  0  0  0  0  0  0  0
   -4.3676   -2.1550    1.4866 C   0  0  0  0  0  0  0  0  0  0  0  0
   -5.6042   -3.3171    2.3199 Br  0  0  0  0  0  0  0  0  0  0  0  0
   -3.9415   -1.0075    2.1540 C   0  0  0  0  0  0  0  0  0  0  0  0
   -3.0290   -0.1550    1.5331 C   0  0  0  0  0  0  0  0  0  0  0  0
   -2.5052    1.2596    2.3724 Cl  0  0  0  0  0  0  0  0  0  0  0  0
  1  2  1  0
  2  3  1  0
  3  4  1  0
  4  5  1  0
  5  6  2  0
  5  7  1  6
  7  8  1  0
  8  9  1  0
  5 10  1  0
 10 11  1  0
 11 12  2  0
 12 13  1  0
 13 14  2  0
 14 15  1  0
 14 16  1  0
 16 17  2  0
 17 18  1  0
 17 11  1  0
M  END
