
     RDKit          3D

 18 19  0  0  0  0  0  0  0  0999 V2000
   -4.0275    1.7055    0.3962 C   0  0  0  0  0  0  0  0  0  0  0  0
   -2.8462    1.2038    0.7855 C   0  0  0  0  0  0  0  0  0  0  0  0
   -2.1473   -0.0228    0.2485 C   0  0  2  0  0  0  0  0  0  0  0  0
   -2.9220   -0.8643   -0.7642 C   0  0  0  0  0  0  0  0  0  0  0  0
   -1.8137   -0.8547    1.3548 O   0  0  0  0  0  0  0  0  0  0  0  0
   -0.4593   -1.0131    1.4094 C   0  0  0  0  0  0  0  0  0  0  0  0
    0.0384   -1.7034    2.2858 O   0  0  0  0  0  0  0  0  0  0  0  0
    0.1638   -0.3051    0.4197 N   0  0  0  0  0  0  0  0  0  0  0  0
    1.5797   -0.2440    0.1989 C   0  0  0  0  0  0  0  0  0  0  0  0
    2.4726   -1.0896    0.8818 C   0  0  0  0  0  0  0  0  0  0  0  0
    3.8546   -1.0264    0.6608 C   0  0  0  0  0  0  0  0  0  0  0  0
    4.9039   -2.0897    1.5175 Cl  0  0  0  0  0  0  0  0  0  0  0  0
    4.3910   -0.1221   -0.2428 C   0  0  0  0  0  0  0  0  0  0  0  0
    3.5294    0.7214   -0.9269 C   0  0  0  0  0  0  0  0  0  0  0  0
    4.1718    1.8577   -2.0502 Cl  0  0  0  0  0  0  0  0  0  0  0  0
    2.1461    0.6644   -0.7135 C   0  0  0  0  0  0  0  0  0  0  0  0
   -0.7895    0.3450   -0.3234 C   0  0  0  0  0  0  0  0  0  0  0  0
   -0.6442    1.0750   -1.2962 O   0  0  0  0  0  0  0  0  0  0  0  0
  1  2  2  0
  2  3  1  0
  3  4  1  6
  3  5  1  0
  5  6  1  0
  6  7  2  0
  6  8  1  0
  8  9  1  0
  9 10  2  0
 10 11  1  0
 11 12  1  0
 11 13  2  0
 13 14  1  0
 14 15  1  0
 14 16  2  0
  8 17  1  0
 17 18  2  0
 17  3  1  0
 16  9  1  0
M  END
