
     RDKit          3D

 10 11  0  0  0  0  0  0  0  0999 V2000
   -1.1612   -0.6641   -1.4316 C   0  0  0  0  0  0  0  0  0  0  0  0
   -1.0331   -0.2584    0.0423 C   0  0  0  0  0  0  0  0  0  0  0  0
    0.0473   -1.0299    0.9144 C   0  0  1  0  0  0  0  0  0  0  0  0
    1.3702   -1.3507    0.1934 C   0  0  0  0  0  0  0  0  0  0  0  0
    2.0610   -0.0680   -0.3229 C   0  0  0  0  0  0  0  0  0  0  0  0
    1.0994    1.0904   -0.4654 C   0  0  0  0  0  0  0  0  0  0  0  0
    1.2616    2.1093   -1.3192 C   0  0  0  0  0  0  0  0  0  0  0  0
   -0.1391    1.0095    0.3841 C   0  0  2  0  0  0  0  0  0  0  0  0
    0.1720    0.2865    1.7430 C   0  0  0  0  0  0  0  0  0  0  0  0
   -2.4513   -0.2272    0.6440 C   0  0  0  0  0  0  0  0  0  0  0  0
  1  2  1  0
  2  3  1  0
  3  4  1  6
  4  5  1  0
  5  6  1  0
  6  7  2  0
  6  8  1  0
  8  9  1  1
  2 10  1  0
  8  2  1  0
  9  3  1  0
M  END
