
     RDKit          3D

 11 11  0  0  0  0  0  0  0  0999 V2000
    3.2439    1.1307   -0.0561 C   0  0  0  0  0  0  0  0  0  0  0  0
    1.9917    0.3123   -0.1897 C   0  0  0  0  0  0  0  0  0  0  0  0
    1.3470    0.1864   -1.3616 C   0  0  0  0  0  0  0  0  0  0  0  0
    0.0786   -0.5974   -1.5436 C   0  0  0  0  0  0  0  0  0  0  0  0
   -0.6596   -0.9743   -0.2374 C   0  0  1  0  0  0  0  0  0  0  0  0
    0.3678   -1.3533    0.8516 C   0  0  0  0  0  0  0  0  0  0  0  0
    1.5089   -0.3602    1.0674 C   0  0  0  0  0  0  0  0  0  0  0  0
   -1.7233    0.0751    0.2368 C   0  0  0  0  0  0  0  0  0  0  0  0
   -1.2128    1.5031    0.4408 C   0  0  0  0  0  0  0  0  0  0  0  0
   -2.9490    0.1342   -0.6958 C   0  0  0  0  0  0  0  0  0  0  0  0
   -1.3819   -2.1974   -0.5146 O   0  0  0  0  0  0  0  0  0  0  0  0
  1  2  1  0
  2  3  2  0
  3  4  1  0
  4  5  1  0
  5  6  1  0
  6  7  1  0
  5  8  1  0
  8  9  1  0
  8 10  1  0
  5 11  1  6
  7  2  1  0
M  END
