
     RDKit          3D

  7  6  0  0  0  0  0  0  0  0999 V2000
    0.4698    1.4260    0.4797 C   0  0  0  0  0  0  0  0  0  0  0  0
    0.1796    0.2162   -0.4086 C   0  0  2  0  0  0  0  0  0  0  0  0
   -0.9493   -0.6669    0.1307 C   0  0  0  0  0  0  0  0  0  0  0  0
   -2.2244    0.0457    0.2167 N   0  0  0  0  0  0  0  0  0  0  0  0
    1.3987   -0.6539   -0.6067 C   0  0  0  0  0  0  0  0  0  0  0  0
    1.6265   -1.3345   -1.5951 O   0  0  0  0  0  0  0  0  0  0  0  0
    2.2359   -0.6948    0.4449 O   0  0  0  0  0  0  0  0  0  0  0  0
  2  1  1  1
  2  3  1  0
  3  4  1  0
  2  5  1  0
  5  6  2  0
  5  7  1  0
M  END
