
     RDKit          3D

  9  8  0  0  0  0  0  0  0  0999 V2000
   -0.9968   -0.4795    1.3522 C   0  0  0  0  0  0  0  0  0  0  0  0
   -1.1916   -0.0301   -0.0949 C   0  0  0  0  0  0  0  0  0  0  0  0
   -2.3284   -0.8391   -0.7303 C   0  0  0  0  0  0  0  0  0  0  0  0
    0.0820   -0.1677   -0.9610 C   0  0  0  0  0  0  0  0  0  0  0  0
    1.3156    0.6481   -0.5370 C   0  0  2  0  0  0  0  0  0  0  0  0
    2.0794    0.0815    0.6690 C   0  0  0  0  0  0  0  0  0  0  0  0
    2.6251    0.7302    1.5506 O   0  0  0  0  0  0  0  0  0  0  0  0
    2.2103   -1.2599    0.6496 O   0  0  0  0  0  0  0  0  0  0  0  0
    0.9591    2.0625   -0.3074 N   0  0  0  0  0  0  0  0  0  0  0  0
  1  2  1  0
  2  3  1  0
  2  4  1  0
  4  5  1  0
  5  6  1  0
  6  7  2  0
  6  8  1  0
  5  9  1  1
M  END
