
     RDKit          3D

  9  9  0  0  0  0  0  0  0  0999 V2000
   -1.1972    1.3491   -0.0796 C   0  0  0  0  0  0  0  0  0  0  0  0
    0.1671    1.0352    0.5288 C   0  0  0  0  0  0  0  0  0  0  0  0
    0.8676   -0.0793   -0.2533 C   0  0  2  0  0  0  0  0  0  0  0  0
   -0.0583   -1.2912   -0.4094 C   0  0  0  0  0  0  0  0  0  0  0  0
   -1.3340   -0.9219   -1.0358 N   0  0  0  0  0  0  0  0  0  0  0  0
   -2.0400    0.0868   -0.2453 C   0  0  0  0  0  0  0  0  0  0  0  0
    2.1438   -0.4923    0.4390 C   0  0  0  0  0  0  0  0  0  0  0  0
    2.3958   -1.5760    0.9387 O   0  0  0  0  0  0  0  0  0  0  0  0
    3.0659    0.4914    0.4550 O   0  0  0  0  0  0  0  0  0  0  0  0
  1  2  1  0
  2  3  1  0
  3  4  1  0
  4  5  1  0
  5  6  1  0
  3  7  1  1
  7  8  2  0
  7  9  1  0
  6  1  1  0
M  END
