
     RDKit          3D

  9  9  0  0  0  0  0  0  0  0999 V2000
    0.2666    1.0891   -0.3252 C   0  0  0  0  0  0  0  0  0  0  0  0
    1.5611    0.4554    0.1645 C   0  0  1  0  0  0  0  0  0  0  0  0
    1.1142   -0.8948    0.7068 C   0  0  0  0  0  0  0  0  0  0  0  0
    0.1336   -1.3169   -0.3055 N   0  0  0  0  0  0  0  0  0  0  0  0
   -0.6580   -0.0951   -0.6228 C   0  0  1  0  0  0  0  0  0  0  0  0
   -1.9364   -0.0487    0.2164 C   0  0  0  0  0  0  0  0  0  0  0  0
   -2.3194   -0.9037    1.0009 O   0  0  0  0  0  0  0  0  0  0  0  0
   -2.6776    1.0537   -0.0092 O   0  0  0  0  0  0  0  0  0  0  0  0
    2.4413    0.2665   -0.9455 O   0  0  0  0  0  0  0  0  0  0  0  0
  1  2  1  0
  2  3  1  0
  3  4  1  0
  4  5  1  0
  5  6  1  1
  6  7  2  0
  6  8  1  0
  2  9  1  6
  5  1  1  0
M  END
