
     RDKit          3D

  8  7  0  0  0  0  0  0  0  0999 V2000
   -2.1762   -0.7367   -0.8069 C   0  0  0  0  0  0  0  0  0  0  0  0
   -0.9246   -0.7276    0.0635 C   0  0  0  0  0  0  0  0  0  0  0  0
   -0.0947    0.5637   -0.0753 C   0  0  2  0  0  0  0  0  0  0  0  0
    1.1917    0.5007    0.7551 C   0  0  0  0  0  0  0  0  0  0  0  0
    2.1465   -0.5329    0.2294 C   0  0  0  0  0  0  0  0  0  0  0  0
    2.4309   -1.5897    0.7672 O   0  0  0  0  0  0  0  0  0  0  0  0
    2.7084   -0.1837   -0.9424 O   0  0  0  0  0  0  0  0  0  0  0  0
   -0.9024    1.7180    0.3454 N   0  0  0  0  0  0  0  0  0  0  0  0
  1  2  1  0
  2  3  1  0
  3  4  1  0
  4  5  1  0
  5  6  2  0
  5  7  1  0
  3  8  1  1
M  END
