
     RDKit          3D

  8  7  0  0  0  0  0  0  0  0999 V2000
   -2.2001    1.1491   -0.3003 C   0  0  0  0  0  0  0  0  0  0  0  0
   -1.2779    0.0857    0.2949 C   0  0  1  0  0  0  0  0  0  0  0  0
   -1.8140   -1.2314   -0.0436 N   0  0  0  0  0  0  0  0  0  0  0  0
    0.1586    0.2746   -0.2154 C   0  0  0  0  0  0  0  0  0  0  0  0
    1.1613   -0.6642    0.4483 C   0  0  0  0  0  0  0  0  0  0  0  0
    2.5521   -0.3508   -0.0189 C   0  0  0  0  0  0  0  0  0  0  0  0
    3.1155   -0.8414   -0.9823 O   0  0  0  0  0  0  0  0  0  0  0  0
    3.1536    0.5923    0.7289 O   0  0  0  0  0  0  0  0  0  0  0  0
  2  1  1  6
  2  3  1  0
  2  4  1  0
  4  5  1  0
  5  6  1  0
  6  7  2  0
  6  8  1  0
M  END
