
     RDKit          3D

  8  8  0  0  0  0  0  0  0  0999 V2000
   -1.3495    0.6294   -0.5164 C   0  0  0  0  0  0  0  0  0  0  0  0
    0.0302    1.1418   -0.1540 C   0  0  0  0  0  0  0  0  0  0  0  0
    0.6735   -0.0257    0.5860 C   0  0  1  0  0  0  0  0  0  0  0  0
   -0.4343   -0.9380    0.9932 N   0  0  0  0  0  0  0  0  0  0  0  0
   -1.6896   -0.2615    0.6575 C   0  0  0  0  0  0  0  0  0  0  0  0
    1.6613   -0.7677   -0.3150 C   0  0  0  0  0  0  0  0  0  0  0  0
    1.5031   -1.8747   -0.8086 O   0  0  0  0  0  0  0  0  0  0  0  0
    2.7908   -0.0696   -0.5485 O   0  0  0  0  0  0  0  0  0  0  0  0
  1  2  1  0
  2  3  1  0
  3  4  1  0
  4  5  1  0
  3  6  1  6
  6  7  2  0
  6  8  1  0
  5  1  1  0
M  END
