
     RDKit          3D

  8  7  0  0  0  0  0  0  0  0999 V2000
   -2.6603    0.4203    0.3754 C   0  0  0  0  0  0  0  0  0  0  0  0
   -1.2051    0.5638   -0.0456 C   0  0  0  0  0  0  0  0  0  0  0  0
   -0.4373   -0.7493    0.1513 C   0  0  0  0  0  0  0  0  0  0  0  0
    1.0530   -0.6751   -0.2077 C   0  0  2  0  0  0  0  0  0  0  0  0
    1.8367    0.2375    0.7473 C   0  0  0  0  0  0  0  0  0  0  0  0
    1.5459    0.5265    1.8970 O   0  0  0  0  0  0  0  0  0  0  0  0
    3.0047    0.6740    0.2168 O   0  0  0  0  0  0  0  0  0  0  0  0
    1.2396   -0.2550   -1.6126 N   0  0  0  0  0  0  0  0  0  0  0  0
  1  2  1  0
  2  3  1  0
  3  4  1  0
  4  5  1  0
  5  6  2  0
  5  7  1  0
  4  8  1  6
M  END
