
     RDKit          3D

  9  8  0  0  0  0  0  0  0  0999 V2000
   -3.2287   -0.1518   -0.2099 C   0  0  0  0  0  0  0  0  0  0  0  0
   -1.7589    0.2194   -0.3359 C   0  0  0  0  0  0  0  0  0  0  0  0
   -1.0238    0.0437    0.9933 C   0  0  0  0  0  0  0  0  0  0  0  0
    0.4340    0.5193    0.9493 C   0  0  0  0  0  0  0  0  0  0  0  0
    1.3399   -0.2268   -0.0406 C   0  0  1  0  0  0  0  0  0  0  0  0
    2.7660    0.3388    0.0179 C   0  0  0  0  0  0  0  0  0  0  0  0
    3.7760   -0.2725    0.3347 O   0  0  0  0  0  0  0  0  0  0  0  0
    2.8432    1.6304   -0.3584 O   0  0  0  0  0  0  0  0  0  0  0  0
    1.3659   -1.6764    0.2633 N   0  0  0  0  0  0  0  0  0  0  0  0
  1  2  1  0
  2  3  1  0
  3  4  1  0
  4  5  1  0
  5  6  1  0
  6  7  2  0
  6  8  1  0
  5  9  1  1
M  END
