
     RDKit          3D

  9  8  0  0  0  0  0  0  0  0999 V2000
    2.0449    0.3880   -0.6193 C   0  0  0  0  0  0  0  0  0  0  0  0
    1.2320   -0.2282    0.5185 C   0  0  0  0  0  0  0  0  0  0  0  0
    1.8283    0.2055    1.8620 C   0  0  0  0  0  0  0  0  0  0  0  0
   -0.2674    0.1376    0.4788 C   0  0  0  0  0  0  0  0  0  0  0  0
   -1.0339   -0.3848   -0.7477 C   0  0  1  0  0  0  0  0  0  0  0  0
   -2.5385   -0.4452   -0.4455 C   0  0  0  0  0  0  0  0  0  0  0  0
   -3.4077    0.2531   -0.9460 O   0  0  0  0  0  0  0  0  0  0  0  0
   -2.8628   -1.3988    0.4499 O   0  0  0  0  0  0  0  0  0  0  0  0
   -0.8048    0.4761   -1.9304 N   0  0  0  0  0  0  0  0  0  0  0  0
  1  2  1  0
  2  3  1  0
  2  4  1  0
  4  5  1  0
  5  6  1  0
  6  7  2  0
  6  8  1  0
  5  9  1  6
M  END
