
     RDKit          3D

  7  7  0  0  0  0  0  0  0  0999 V2000
   -0.8621    0.6673    0.5476 C   0  0  0  0  0  0  0  0  0  0  0  0
   -1.7226    0.0954   -0.5848 C   0  0  0  0  0  0  0  0  0  0  0  0
   -0.5678   -0.7286   -1.0059 N   0  0  0  0  0  0  0  0  0  0  0  0
    0.3399    0.2619   -0.3303 C   0  0  2  0  0  0  0  0  0  0  0  0
    1.5623   -0.4188    0.3816 C   0  0  0  0  0  0  0  0  0  0  0  0
    1.5740   -1.4460    1.0521 O   0  0  0  0  0  0  0  0  0  0  0  0
    2.7313    0.2446    0.2015 O   0  0  0  0  0  0  0  0  0  0  0  0
  1  2  1  0
  2  3  1  0
  3  4  1  0
  4  5  1  1
  5  6  2  0
  5  7  1  0
  4  1  1  0
M  END
