
     RDKit          3D

  9  8  0  0  0  0  0  0  0  0999 V2000
   -2.5927   -0.4344   -0.6888 C   0  0  0  0  0  0  0  0  0  0  0  0
   -1.1150   -0.3474   -1.0507 C   0  0  0  0  0  0  0  0  0  0  0  0
   -0.1876    0.0197    0.1330 C   0  0  2  0  0  0  0  0  0  0  0  0
   -0.6328    1.3423    0.7803 C   0  0  0  0  0  0  0  0  0  0  0  0
    1.3035    0.1085   -0.3038 C   0  0  1  0  0  0  0  0  0  0  0  0
    2.2071    0.3902    0.9085 C   0  0  0  0  0  0  0  0  0  0  0  0
    2.7023    1.4647    1.2110 O   0  0  0  0  0  0  0  0  0  0  0  0
    2.3988   -0.6948    1.6950 O   0  0  0  0  0  0  0  0  0  0  0  0
    1.7978   -1.1197   -0.9666 N   0  0  0  0  0  0  0  0  0  0  0  0
  1  2  1  0
  2  3  1  0
  3  4  1  6
  3  5  1  0
  5  6  1  0
  6  7  2  0
  6  8  1  0
  5  9  1  1
M  END
