
     RDKit          3D

 12 12  0  0  0  0  0  0  0  0999 V2000
    2.6625   -1.1446   -0.9647 O   0  0  0  0  0  0  0  0  0  0  0  0
    2.1271   -1.2538    0.3687 C   0  0  0  0  0  0  0  0  0  0  0  0
    0.8187   -0.4403    0.5054 C   0  0  2  0  0  0  0  0  0  0  0  0
   -0.4313   -1.1641   -0.0838 C   0  0  0  0  0  0  0  0  0  0  0  0
   -1.6642   -0.1831    0.0119 C   0  0  2  0  0  0  0  0  0  0  0  0
   -1.2842    1.2905    0.2745 C   0  0  2  0  0  0  0  0  0  0  0  0
    0.0057    1.6405   -0.5407 C   0  0  2  0  0  0  0  0  0  0  0  0
    1.1163    0.8060   -0.1804 O   0  0  0  0  0  0  0  0  0  0  0  0
    0.3765    2.8817   -0.2418 O   0  0  0  0  0  1  0  0  0  0  0  0
   -1.0446    1.5846    1.6725 O   0  0  0  0  0  0  0  0  0  0  0  0
   -2.6466   -0.6606    0.9543 O   0  0  0  0  0  0  0  0  0  0  0  0
   -0.7058   -2.2851    0.5997 O   0  0  0  0  0  1  0  0  0  0  0  0
  1  2  1  0
  3  2  1  6
  3  4  1  0
  4  5  1  0
  5  6  1  0
  6  7  1  0
  7  8  1  0
  7  9  1  1
  6 10  1  1
  5 11  1  1
  4 12  1  0
  8  3  1  0
M  RAD  2   9   2  12   2
M  END
