
     RDKit          3D

 21 21  0  0  0  0  0  0  0  0999 V2000
   -2.3102   -1.6823   -1.0038 C   0  0  0  0  0  0  0  0  0  0  0  0
   -3.0914   -1.0400    0.1595 C   0  0  0  0  0  0  0  0  0  0  0  0
   -2.5935   -1.6125    1.5028 C   0  0  0  0  0  0  0  0  0  0  0  0
   -4.5974   -1.3249   -0.0097 C   0  0  0  0  0  0  0  0  0  0  0  0
   -2.7714    1.0087    0.1570 Si  0  0  0  0  0  4  0  0  0  0  0  0
   -3.1955    1.6483   -1.5602 C   0  0  0  0  0  0  0  0  0  0  0  0
   -4.0137    1.7395    1.3841 C   0  0  0  0  0  0  0  0  0  0  0  0
   -1.2154    1.3587    0.6377 O   0  0  0  0  0  0  0  0  0  0  0  0
   -0.1517    1.3981   -0.3345 C   0  0  0  0  0  0  0  0  0  0  0  0
    1.2165    1.0880    0.3158 C   0  0  2  0  0  0  0  0  0  0  0  0
    2.4053    1.4982   -0.6310 C   0  0  0  0  0  0  0  0  0  0  0  0
    2.5928    2.8229   -0.6611 O   0  0  0  0  0  1  0  0  0  0  0  0
    3.6636    0.7126   -0.1198 C   0  0  1  0  0  0  0  0  0  0  0  0
    3.9974    0.9056    1.2822 O   0  0  0  0  0  0  0  0  0  0  0  0
    4.4234    2.2130    1.6032 C   0  0  0  0  0  0  0  0  0  0  0  0
    3.4244   -0.8287   -0.3842 C   0  0  1  0  0  0  0  0  0  0  0  0
    4.4190   -1.5639    0.3773 O   0  0  0  0  0  0  0  0  0  0  0  0
    4.4858   -2.9413    0.0684 C   0  0  0  0  0  0  0  0  0  0  0  0
    1.8682   -1.1858   -0.2746 C   0  0  1  0  0  0  0  0  0  0  0  0
    1.6096   -2.4440    0.0567 O   0  0  0  0  0  1  0  0  0  0  0  0
    1.2421   -0.3235    0.6934 O   0  0  0  0  0  0  0  0  0  0  0  0
  1  2  1  0
  2  3  1  0
  2  4  1  0
  2  5  1  0
  5  6  1  0
  5  7  1  0
  5  8  1  0
  8  9  1  0
 10  9  1  6
 10 11  1  0
 11 12  1  0
 11 13  1  0
 13 14  1  1
 14 15  1  0
 13 16  1  0
 16 17  1  1
 17 18  1  0
 16 19  1  0
 19 20  1  1
 19 21  1  0
 21 10  1  0
M  RAD  2  12   2  20   2
M  END
