
     RDKit          3D

 22 24  0  0  0  0  0  0  0  0999 V2000
   -2.1807   -0.9293    1.4655 C   0  0  0  0  0  0  0  0  0  0  0  0
   -1.5595   -1.3023    0.1030 C   0  0  0  0  0  0  0  0  0  0  0  0
   -2.6594   -1.9402   -0.7628 C   0  0  0  0  0  0  0  0  0  0  0  0
   -0.4365   -2.3428    0.3220 C   0  0  0  0  0  0  0  0  0  0  0  0
    0.8661   -1.5614    0.5063 C   0  0  0  0  0  0  0  0  0  0  0  0
    0.5366   -0.0823    0.2423 C   0  0  1  0  0  0  0  0  0  0  0  0
    1.6966    0.6655   -0.4398 C   0  0  0  0  0  0  0  0  0  0  0  0
    2.9296    0.7685    0.4318 C   0  0  0  0  0  0  0  0  0  0  0  0
    2.9617    1.6453    1.5259 C   0  0  0  0  0  0  0  0  0  0  0  0
    4.1009    1.7314    2.3306 C   0  0  0  0  0  0  0  0  0  0  0  0
    5.2129    0.9429    2.0442 C   0  0  0  0  0  0  0  0  0  0  0  0
    6.6157    1.0508    3.0365 Cl  0  0  0  0  0  0  0  0  0  0  0  0
    5.1955    0.0672    0.9615 C   0  0  0  0  0  0  0  0  0  0  0  0
    4.0568   -0.0193    0.1565 C   0  0  0  0  0  0  0  0  0  0  0  0
   -0.7871   -0.1217   -0.5755 C   0  0  1  0  0  0  0  0  0  0  0  0
   -0.4341   -0.4830   -1.9209 O   0  0  0  0  0  0  0  0  0  0  0  0
   -1.4653    1.2670   -0.5680 C   0  0  0  0  0  0  0  0  0  0  0  0
   -2.7289    1.3284   -1.2702 N   0  0  0  0  0  0  0  0  0  0  0  0
   -3.9289    1.7631   -0.8013 C   0  0  0  0  0  0  0  0  0  0  0  0
   -4.8231    1.6905   -1.7592 N   0  0  0  0  0  0  0  0  0  0  0  0
   -4.1041    1.2126   -2.8186 C   0  0  0  0  0  0  0  0  0  0  0  0
   -2.8140    0.9698   -2.5673 N   0  0  0  0  0  0  0  0  0  0  0  0
  1  2  1  0
  2  3  1  0
  2  4  1  0
  4  5  1  0
  5  6  1  0
  6  7  1  6
  7  8  1  0
  8  9  2  0
  9 10  1  0
 10 11  2  0
 11 12  1  0
 11 13  1  0
 13 14  2  0
  6 15  1  0
 15 16  1  6
 15 17  1  0
 17 18  1  0
 18 19  1  0
 19 20  2  0
 20 21  1  0
 21 22  2  0
 15  2  1  0
 22 18  1  0
 14  8  1  0
M  END
