
     RDKit          3D

 10 11  0  0  0  0  0  0  0  0999 V2000
   -2.1469   -0.8120   -1.0294 C   0  0  0  0  0  0  0  0  0  0  0  0
   -1.5994    0.2717   -0.0988 C   0  0  0  0  0  0  0  0  0  0  0  0
   -2.5139    0.4170    1.1215 C   0  0  0  0  0  0  0  0  0  0  0  0
   -0.1557    0.0730    0.3510 C   0  0  2  0  0  0  0  0  0  0  0  0
    0.5753    1.3346    0.7882 C   0  0  0  0  0  0  0  0  0  0  0  0
    2.0737    1.0958    0.5385 C   0  0  0  0  0  0  0  0  0  0  0  0
    2.1266   -0.0896   -0.3974 C   0  0  0  0  0  0  0  0  0  0  0  0
    3.2002   -0.3976   -1.1355 C   0  0  0  0  0  0  0  0  0  0  0  0
    0.8378   -0.7965   -0.3888 C   0  0  1  0  0  0  0  0  0  0  0  0
    0.2759   -1.2628    0.9273 C   0  0  0  0  0  0  0  0  0  0  0  0
  1  2  1  0
  2  3  1  0
  4  2  1  6
  4  5  1  0
  5  6  1  0
  6  7  1  0
  7  8  2  0
  7  9  1  0
  9 10  1  1
  9  4  1  0
 10  4  1  0
M  END
