
     RDKit          3D

  6  5  0  0  0  0  0  0  0  0999 V2000
   -1.6516   -1.3655    0.9933 Cl  0  0  0  0  0  0  0  0  0  0  0  0
   -1.2193   -0.3232   -0.3882 C   0  0  0  0  0  0  0  0  0  0  0  0
   -0.0242    0.5943   -0.1254 C   0  0  1  0  0  0  0  0  0  0  0  0
   -0.5424    1.9920    1.1647 Br  0  0  0  0  0  0  0  0  0  0  0  0
    1.2426   -0.0752    0.3826 C   0  0  0  0  0  0  0  0  0  0  0  0
    2.0275   -1.2070   -0.9983 Br  0  0  0  0  0  0  0  0  0  0  0  0
  1  2  1  0
  2  3  1  0
  3  4  1  1
  3  5  1  0
  5  6  1  0
M  END
