
     RDKit          3D

 26 28  0  0  0  0  0  0  0  0999 V2000
   -5.6917   -1.3745   -0.7497 C   0  0  0  0  0  0  0  0  0  0  0  0
   -4.2196   -1.0954   -0.5595 C   0  0  0  0  0  0  0  0  0  0  0  0
   -3.3409   -2.1189   -1.2420 C   0  0  0  0  0  0  0  0  0  0  0  0
   -3.7988    0.3641   -0.4659 C   0  0  2  0  0  0  0  0  0  0  0  0
   -2.5512    0.8365   -1.0923 C   0  0  0  0  0  0  0  0  0  0  0  0
   -1.8677    1.9590   -0.8151 C   0  0  0  0  0  0  0  0  0  0  0  0
   -2.3761    3.0746    0.4018 Cl  0  0  0  0  0  0  0  0  0  0  0  0
   -0.4537    2.3621   -1.7286 Cl  0  0  0  0  0  0  0  0  0  0  0  0
   -3.7979   -0.5010    0.7787 C   0  0  2  0  0  0  0  0  0  0  0  0
   -2.5552   -0.8932    1.4850 C   0  0  0  0  0  0  0  0  0  0  0  0
   -2.1263   -2.0380    1.4794 O   0  0  0  0  0  0  0  0  0  0  0  0
   -2.0345    0.1592    2.1629 O   0  0  0  0  0  0  0  0  0  0  0  0
   -0.8243   -0.1007    2.8803 C   0  0  0  0  0  0  0  0  0  0  0  0
    0.3336    0.4739    2.1091 C   0  0  0  0  0  0  0  0  0  0  0  0
    0.7558    1.7913    2.3304 C   0  0  0  0  0  0  0  0  0  0  0  0
    1.8031    2.3317    1.5847 C   0  0  0  0  0  0  0  0  0  0  0  0
    2.4378    1.5636    0.6082 C   0  0  0  0  0  0  0  0  0  0  0  0
    2.0311    0.2467    0.3823 C   0  0  0  0  0  0  0  0  0  0  0  0
    2.5626   -0.5805   -0.5839 O   0  0  0  0  0  0  0  0  0  0  0  0
    3.8564   -0.3515   -0.9865 C   0  0  0  0  0  0  0  0  0  0  0  0
    4.9288   -0.4886   -0.1029 C   0  0  0  0  0  0  0  0  0  0  0  0
    6.2288   -0.2709   -0.5581 C   0  0  0  0  0  0  0  0  0  0  0  0
    6.4527    0.0633   -1.8951 C   0  0  0  0  0  0  0  0  0  0  0  0
    5.3782    0.1692   -2.7802 C   0  0  0  0  0  0  0  0  0  0  0  0
    4.0771   -0.0465   -2.3283 C   0  0  0  0  0  0  0  0  0  0  0  0
    0.9715   -0.2883    1.1190 C   0  0  0  0  0  0  0  0  0  0  0  0
  1  2  1  0
  2  3  1  0
  2  4  1  0
  4  5  1  6
  5  6  2  3
  6  7  1  0
  6  8  1  0
  4  9  1  0
  9 10  1  6
 10 11  2  0
 10 12  1  0
 12 13  1  0
 13 14  1  0
 14 15  2  0
 15 16  1  0
 16 17  2  0
 17 18  1  0
 18 19  1  0
 19 20  1  0
 20 21  2  0
 21 22  1  0
 22 23  2  0
 23 24  1  0
 24 25  2  0
 18 26  2  0
  9  2  1  0
 26 14  1  0
 25 20  1  0
M  END
