
     RDKit          3D

 10 11  0  0  0  0  0  0  0  0999 V2000
    0.6935    1.4571    1.1113 C   0  0  0  0  0  0  0  0  0  0  0  0
    1.0094    0.2180    0.2638 C   0  0  0  0  0  0  0  0  0  0  0  0
    0.3202   -1.1474    0.6928 C   0  0  1  0  0  0  0  0  0  0  0  0
   -1.1357   -1.0267    1.1813 C   0  0  0  0  0  0  0  0  0  0  0  0
   -2.0464   -0.3981    0.1021 C   0  0  0  0  0  0  0  0  0  0  0  0
   -1.2669    0.3924   -0.9248 C   0  0  0  0  0  0  0  0  0  0  0  0
   -1.7653    1.4144   -1.6324 C   0  0  0  0  0  0  0  0  0  0  0  0
    0.1792    0.0072   -1.0741 C   0  0  2  0  0  0  0  0  0  0  0  0
    0.3683   -1.5307   -0.8191 C   0  0  0  0  0  0  0  0  0  0  0  0
    2.5388    0.1470    0.0904 C   0  0  0  0  0  0  0  0  0  0  0  0
  1  2  1  0
  2  3  1  0
  3  4  1  6
  4  5  1  0
  5  6  1  0
  6  7  2  0
  6  8  1  0
  8  9  1  1
  2 10  1  0
  8  2  1  0
  9  3  1  0
M  END
