
     RDKit          3D

 10 10  0  0  0  0  0  0  0  0999 V2000
   -2.3128    0.0239   -1.0393 C   0  0  0  0  0  0  0  0  0  0  0  0
   -1.6358   -0.0390    0.3231 C   0  0  2  0  0  0  0  0  0  0  0  0
   -0.1276    0.0552    0.2271 C   0  0  0  0  0  0  0  0  0  0  0  0
    0.5409    1.1982    0.6952 C   0  0  0  0  0  0  0  0  0  0  0  0
    1.9313    1.2906    0.6063 C   0  0  0  0  0  0  0  0  0  0  0  0
    2.6553    0.2434    0.0495 C   0  0  0  0  0  0  0  0  0  0  0  0
    2.0161   -0.8962   -0.4215 C   0  0  0  0  0  0  0  0  0  0  0  0
    0.6266   -0.9908   -0.3338 C   0  0  0  0  0  0  0  0  0  0  0  0
    3.9889    0.3347   -0.0342 F   0  0  0  0  0  0  0  0  0  0  0  0
   -2.0088   -1.2561    0.9662 O   0  0  0  0  0  0  0  0  0  0  0  0
  2  1  1  6
  2  3  1  0
  3  4  2  0
  4  5  1  0
  5  6  2  0
  6  7  1  0
  7  8  2  0
  6  9  1  0
  2 10  1  0
  8  3  1  0
M  END
