
     RDKit          3D

 26 28  0  0  0  0  0  0  0  0999 V2000
    5.4122    0.5975   -1.8818 C   0  0  0  0  0  0  0  0  0  0  0  0
    4.7588   -0.4952   -1.0684 C   0  0  0  0  0  0  0  0  0  0  0  0
    5.0175   -1.8770   -1.6219 C   0  0  0  0  0  0  0  0  0  0  0  0
    4.6117   -0.3689    0.4415 C   0  0  1  0  0  0  0  0  0  0  0  0
    5.1723    0.7854    1.1621 C   0  0  0  0  0  0  0  0  0  0  0  0
    4.6146    1.4693    2.1733 C   0  0  0  0  0  0  0  0  0  0  0  0
    5.4584    2.7915    2.8987 Cl  0  0  0  0  0  0  0  0  0  0  0  0
    3.0545    1.0789    2.8007 Cl  0  0  0  0  0  0  0  0  0  0  0  0
    3.4039   -0.1707   -0.4544 C   0  0  2  0  0  0  0  0  0  0  0  0
    2.2927   -1.1554   -0.4384 C   0  0  0  0  0  0  0  0  0  0  0  0
    2.3296   -2.1856    0.2184 O   0  0  0  0  0  0  0  0  0  0  0  0
    1.2807   -0.7509   -1.2463 O   0  0  0  0  0  0  0  0  0  0  0  0
    0.1293   -1.6008   -1.2613 C   0  0  0  0  0  0  0  0  0  0  0  0
   -0.9040   -1.0580   -0.3090 C   0  0  0  0  0  0  0  0  0  0  0  0
   -0.9475   -1.5022    1.0202 C   0  0  0  0  0  0  0  0  0  0  0  0
   -1.8793   -0.9737    1.9155 C   0  0  0  0  0  0  0  0  0  0  0  0
   -2.7790    0.0034    1.4920 C   0  0  0  0  0  0  0  0  0  0  0  0
   -2.7510    0.4433    0.1672 C   0  0  0  0  0  0  0  0  0  0  0  0
   -3.5810    1.4348   -0.3059 O   0  0  0  0  0  0  0  0  0  0  0  0
   -4.9165    1.3444    0.0140 C   0  0  0  0  0  0  0  0  0  0  0  0
   -5.5392    2.5038    0.4768 C   0  0  0  0  0  0  0  0  0  0  0  0
   -6.8990    2.4853    0.7878 C   0  0  0  0  0  0  0  0  0  0  0  0
   -7.6366    1.3127    0.6199 C   0  0  0  0  0  0  0  0  0  0  0  0
   -7.0180    0.1597    0.1347 C   0  0  0  0  0  0  0  0  0  0  0  0
   -5.6578    0.1755   -0.1769 C   0  0  0  0  0  0  0  0  0  0  0  0
   -1.8038   -0.0659   -0.7232 C   0  0  0  0  0  0  0  0  0  0  0  0
  1  2  1  0
  2  3  1  0
  2  4  1  0
  4  5  1  6
  5  6  2  3
  6  7  1  0
  6  8  1  0
  4  9  1  0
  9 10  1  1
 10 11  2  0
 10 12  1  0
 12 13  1  0
 13 14  1  0
 14 15  2  0
 15 16  1  0
 16 17  2  0
 17 18  1  0
 18 19  1  0
 19 20  1  0
 20 21  2  0
 21 22  1  0
 22 23  2  0
 23 24  1  0
 24 25  2  0
 18 26  2  0
  9  2  1  0
 26 14  1  0
 25 20  1  0
M  END
