
     RDKit          3D

 26 27  0  0  0  0  0  0  0  0999 V2000
   -4.0822   -3.1069    1.0631 N   0  0  0  0  0  0  0  0  0  0  0  0
   -3.3066   -2.3775    0.5979 C   0  0  0  0  0  0  0  0  0  0  0  0
   -2.3374   -1.4712    0.0490 C   0  0  0  0  0  0  0  0  0  0  0  0
   -1.1026   -1.4624    0.5656 N   0  0  0  0  0  0  0  0  0  0  0  0
   -0.4329   -0.5201   -0.1444 N   0  0  0  0  0  0  0  0  0  0  0  0
    0.9334   -0.2835    0.1296 C   0  0  0  0  0  0  0  0  0  0  0  0
    1.3384    0.0273    1.4384 C   0  0  0  0  0  0  0  0  0  0  0  0
    0.2326    0.3005    2.7426 Cl  0  0  0  0  0  0  0  0  0  0  0  0
    2.6945    0.2334    1.7246 C   0  0  0  0  0  0  0  0  0  0  0  0
    3.6666    0.1237    0.7219 C   0  0  0  0  0  0  0  0  0  0  0  0
    5.1245    0.3693    1.0289 C   0  0  0  0  0  0  0  0  0  0  0  0
    5.9585   -0.3878    0.2658 F   0  0  0  0  0  0  0  0  0  0  0  0
    5.4508    0.1029    2.3219 F   0  0  0  0  0  0  0  0  0  0  0  0
    5.4792    1.6631    0.8062 F   0  0  0  0  0  0  0  0  0  0  0  0
    3.2542   -0.1840   -0.5820 C   0  0  0  0  0  0  0  0  0  0  0  0
    1.9012   -0.3954   -0.8799 C   0  0  0  0  0  0  0  0  0  0  0  0
    1.5467   -0.8911   -2.4994 Cl  0  0  0  0  0  0  0  0  0  0  0  0
   -1.2546    0.1018   -1.0931 C   0  0  0  0  0  0  0  0  0  0  0  0
   -0.8657    1.1378   -1.8836 N   0  0  0  0  0  0  0  0  0  0  0  0
   -2.4788   -0.5181   -0.9706 C   0  0  0  0  0  0  0  0  0  0  0  0
   -3.9421   -0.1348   -1.9119 S   0  0  0  0  0  4  0  0  0  0  0  0
   -4.8473   -1.3271   -1.7954 O   0  0  0  0  0  0  0  0  0  0  0  0
   -4.5377    1.2188   -0.8598 C   0  0  0  0  0  0  0  0  0  0  0  0
   -4.5807    0.8804    0.4533 F   0  0  0  0  0  0  0  0  0  0  0  0
   -5.7855    1.6187   -1.2138 F   0  0  0  0  0  0  0  0  0  0  0  0
   -3.7403    2.3143   -0.9628 F   0  0  0  0  0  0  0  0  0  0  0  0
  1  2  3  0
  2  3  1  0
  3  4  2  0
  4  5  1  0
  5  6  1  0
  6  7  2  0
  7  8  1  0
  7  9  1  0
  9 10  2  0
 10 11  1  0
 11 12  1  0
 11 13  1  0
 11 14  1  0
 10 15  1  0
 15 16  2  0
 16 17  1  0
  5 18  1  0
 18 19  1  0
 18 20  2  0
 20 21  1  0
 21 22  2  0
 21 23  1  1
 23 24  1  0
 23 25  1  0
 23 26  1  0
 20  3  1  0
 16  6  1  0
M  END
