
     RDKit          3D

 13 14  0  0  0  0  0  0  0  0999 V2000
   -3.3180    0.9112    0.6677 C   0  0  0  0  0  0  0  0  0  0  0  0
   -2.7567   -0.2918   -0.0783 C   0  0  2  0  0  0  0  0  0  0  0  0
   -1.2574   -0.4243    0.0748 C   0  0  0  0  0  0  0  0  0  0  0  0
   -0.3863    0.5125   -0.5068 C   0  0  0  0  0  0  0  0  0  0  0  0
    1.0076    0.3982   -0.3717 C   0  0  0  0  0  0  0  0  0  0  0  0
    1.8792    1.3330   -0.9535 C   0  0  0  0  0  0  0  0  0  0  0  0
    3.2618    1.2052   -0.8103 C   0  0  0  0  0  0  0  0  0  0  0  0
    3.7902    0.1421   -0.0840 C   0  0  0  0  0  0  0  0  0  0  0  0
    2.9373   -0.7953    0.5007 C   0  0  0  0  0  0  0  0  0  0  0  0
    1.5441   -0.6806    0.3655 C   0  0  0  0  0  0  0  0  0  0  0  0
    0.6725   -1.6137    0.9468 C   0  0  0  0  0  0  0  0  0  0  0  0
   -0.7118   -1.4871    0.8035 C   0  0  0  0  0  0  0  0  0  0  0  0
   -3.0994   -0.1782   -1.4585 O   0  0  0  0  0  0  0  0  0  0  0  0
  2  1  1  1
  2  3  1  0
  3  4  2  0
  4  5  1  0
  5  6  2  0
  6  7  1  0
  7  8  2  0
  8  9  1  0
  9 10  2  0
 10 11  1  0
 11 12  2  0
  2 13  1  0
 12  3  1  0
 10  5  1  0
M  END
