
     RDKit          3D

 12 12  0  0  0  0  0  0  0  0999 V2000
   -5.0515    0.0516    0.3215 C   0  0  0  0  0  0  0  0  0  0  0  0
   -3.8244    0.5472   -0.4268 C   0  0  0  0  0  0  0  0  0  0  0  0
   -2.5473   -0.1124    0.0929 C   0  0  0  0  0  0  0  0  0  0  0  0
   -1.3152    0.3888   -0.6624 C   0  0  0  0  0  0  0  0  0  0  0  0
   -0.0368   -0.2716   -0.1425 C   0  0  0  0  0  0  0  0  0  0  0  0
    1.1933    0.2313   -0.8978 C   0  0  0  0  0  0  0  0  0  0  0  0
    2.4844   -0.4515   -0.4507 C   0  0  2  0  0  0  0  0  0  0  0  0
    2.8745   -0.1705    0.9844 C   0  0  0  0  0  0  0  0  0  0  0  0
    4.3717   -0.3567    0.9503 C   0  0  0  0  0  0  0  0  0  0  0  0
    4.7040    0.0735   -0.4464 C   0  0  0  0  0  0  0  0  0  0  0  0
    5.8159    0.3688   -0.8514 O   0  0  0  0  0  0  0  0  0  0  0  0
    3.5801    0.0554   -1.2226 O   0  0  0  0  0  0  0  0  0  0  0  0
  1  2  1  0
  2  3  1  0
  3  4  1  0
  4  5  1  0
  5  6  1  0
  7  6  1  6
  7  8  1  0
  8  9  1  0
  9 10  1  0
 10 11  2  0
 10 12  1  0
 12  7  1  0
M  END
