
     RDKit          3D

 21 22  0  0  0  0  0  0  0  0999 V2000
   -1.5799    3.3002    0.5524 C   0  0  0  0  0  0  0  0  0  0  0  0
   -1.0927    2.5616   -0.6770 C   0  0  0  0  0  0  0  0  0  0  0  0
   -0.4116    1.3893   -0.2562 O   0  0  0  0  0  0  0  0  0  0  0  0
   -0.2578    0.1516   -1.3077 P   0  0  1  0  0  5  0  0  0  0  0  0
    0.7041    0.6240   -2.9463 S   0  0  0  0  0  0  0  0  0  0  0  0
    0.5122   -0.9370   -0.3792 O   0  0  0  0  0  0  0  0  0  0  0  0
    1.7359   -0.8103    0.2137 C   0  0  0  0  0  0  0  0  0  0  0  0
    2.4791    0.3675    0.2653 C   0  0  0  0  0  0  0  0  0  0  0  0
    3.7229    0.3853    0.9070 C   0  0  0  0  0  0  0  0  0  0  0  0
    4.2157   -0.7840    1.5001 C   0  0  0  0  0  0  0  0  0  0  0  0
    5.5188   -0.7661    2.1763 N   0  0  0  0  0  4  0  0  0  0  0  0
    5.9251   -1.8266    2.6726 O   0  0  0  0  0  0  0  0  0  0  0  0
    6.1342    0.3089    2.2146 O   0  0  0  0  0  1  0  0  0  0  0  0
    3.4715   -1.9682    1.4559 C   0  0  0  0  0  0  0  0  0  0  0  0
    2.2316   -1.9730    0.8122 C   0  0  0  0  0  0  0  0  0  0  0  0
   -1.9154   -0.5368   -1.3741 C   0  0  0  0  0  0  0  0  0  0  0  0
   -2.6195   -0.7777   -0.1816 C   0  0  0  0  0  0  0  0  0  0  0  0
   -3.9101   -1.3071   -0.2081 C   0  0  0  0  0  0  0  0  0  0  0  0
   -4.5141   -1.6048   -1.4271 C   0  0  0  0  0  0  0  0  0  0  0  0
   -3.8289   -1.3751   -2.6183 C   0  0  0  0  0  0  0  0  0  0  0  0
   -2.5372   -0.8451   -2.5932 C   0  0  0  0  0  0  0  0  0  0  0  0
  1  2  1  0
  2  3  1  0
  4  3  1  1
  4  5  2  0
  4  6  1  0
  6  7  1  0
  7  8  2  0
  8  9  1  0
  9 10  2  0
 10 11  1  0
 11 12  2  0
 11 13  1  0
 10 14  1  0
 14 15  2  0
  4 16  1  0
 16 17  2  0
 17 18  1  0
 18 19  2  0
 19 20  1  0
 20 21  2  0
 15  7  1  0
 21 16  1  0
M  CHG  2  11   1  13  -1
M  END
