
     RDKit          3D

 18 20  0  0  0  0  0  0  0  0999 V2000
   -2.7235    1.8631    0.6924 C   0  0  0  0  0  0  0  0  0  0  0  0
   -1.8864    0.9391   -0.1449 C   0  0  2  0  0  0  0  0  0  0  0  0
   -2.5633    0.1502   -1.2493 C   0  0  0  0  0  0  0  0  0  0  0  0
   -2.0267   -0.5758   -0.0305 C   0  0  2  0  0  0  0  0  0  0  0  0
   -3.0039   -1.1982    0.9241 C   0  0  0  0  0  0  0  0  0  0  0  0
   -0.6171   -1.0944   -0.0653 C   0  0  0  0  0  0  0  0  0  0  0  0
   -0.4136   -2.2967   -0.0677 O   0  0  0  0  0  0  0  0  0  0  0  0
    0.2671   -0.0306   -0.1348 N   0  0  0  0  0  0  0  0  0  0  0  0
    1.6967   -0.1703   -0.1619 C   0  0  0  0  0  0  0  0  0  0  0  0
    2.3223   -1.3922    0.1449 C   0  0  0  0  0  0  0  0  0  0  0  0
    3.7162   -1.5259    0.1224 C   0  0  0  0  0  0  0  0  0  0  0  0
    4.4334   -3.0417    0.5142 Cl  0  0  0  0  0  0  0  0  0  0  0  0
    4.5293   -0.4515   -0.2050 C   0  0  0  0  0  0  0  0  0  0  0  0
    3.9333    0.7631   -0.5089 C   0  0  0  0  0  0  0  0  0  0  0  0
    4.9225    2.1106   -0.9231 Cl  0  0  0  0  0  0  0  0  0  0  0  0
    2.5402    0.9066   -0.4872 C   0  0  0  0  0  0  0  0  0  0  0  0
   -0.4040    1.1778   -0.2240 C   0  0  0  0  0  0  0  0  0  0  0  0
    0.0203    2.3154   -0.3357 O   0  0  0  0  0  0  0  0  0  0  0  0
  2  1  1  1
  2  3  1  0
  3  4  1  0
  4  5  1  1
  4  6  1  0
  6  7  2  0
  6  8  1  0
  8  9  1  0
  9 10  2  0
 10 11  1  0
 11 12  1  0
 11 13  2  0
 13 14  1  0
 14 15  1  0
 14 16  2  0
  8 17  1  0
 17 18  2  0
  4  2  1  0
 16  9  1  0
 17  2  1  0
M  END
