
     RDKit          3D

 10 10  0  0  0  0  0  0  0  0999 V2000
    3.6106    0.3599   -0.6618 C   0  0  0  0  0  0  0  0  0  0  0  0
    2.1554    0.0943   -0.4057 C   0  0  0  0  0  0  0  0  0  0  0  0
    1.5947   -1.1038   -0.6451 C   0  0  0  0  0  0  0  0  0  0  0  0
    0.1357   -1.3946   -0.4258 C   0  0  0  0  0  0  0  0  0  0  0  0
   -0.7297   -0.1173   -0.3158 C   0  0  2  0  0  0  0  0  0  0  0  0
   -0.0401    0.8712    0.6401 C   0  0  0  0  0  0  0  0  0  0  0  0
    1.3571    1.2537    0.1368 C   0  0  0  0  0  0  0  0  0  0  0  0
   -2.1930   -0.3404    0.0696 C   0  0  0  0  0  0  0  0  0  0  0  0
   -2.6782   -1.4520    0.6494 C   0  0  0  0  0  0  0  0  0  0  0  0
   -3.1315    0.7888   -0.2818 C   0  0  0  0  0  0  0  0  0  0  0  0
  1  2  1  0
  2  3  2  0
  3  4  1  0
  4  5  1  0
  5  6  1  0
  6  7  1  0
  5  8  1  1
  8  9  2  0
  8 10  1  0
  7  2  1  0
M  END
