
     RDKit          3D

 25 27  0  0  0  0  0  0  0  0999 V2000
   -4.7497   -0.3159    0.0440 C   0  0  0  0  0  0  0  0  0  0  0  0
   -3.3977   -0.1266   -0.6693 C   0  0  0  0  0  0  0  0  0  0  0  0
   -3.6440   -0.4182   -2.1727 C   0  0  0  0  0  0  0  0  0  0  0  0
   -2.9747    1.3487   -0.5606 C   0  0  0  0  0  0  0  0  0  0  0  0
   -2.2834   -1.1013   -0.1437 C   0  0  2  0  0  0  0  0  0  0  0  0
   -2.7511   -2.4644   -0.1399 O   0  0  0  0  0  0  0  0  0  0  0  0
   -1.5806   -0.8216    1.2205 C   0  0  1  0  0  0  0  0  0  0  0  0
   -0.7848    0.3704    1.1766 O   0  0  0  0  0  0  0  0  0  0  0  0
    0.4970    0.3097    0.7129 C   0  0  0  0  0  0  0  0  0  0  0  0
    1.1839    1.5232    0.7754 C   0  0  0  0  0  0  0  0  0  0  0  0
    2.5047    1.6239    0.3274 C   0  0  0  0  0  0  0  0  0  0  0  0
    3.1735    0.5090   -0.1960 C   0  0  0  0  0  0  0  0  0  0  0  0
    4.5635    0.6080   -0.6700 C   0  0  0  0  0  0  0  0  0  0  0  0
    5.5566   -0.2618   -0.1891 C   0  0  0  0  0  0  0  0  0  0  0  0
    6.8765   -0.1685   -0.6392 C   0  0  0  0  0  0  0  0  0  0  0  0
    7.2257    0.7970   -1.5798 C   0  0  0  0  0  0  0  0  0  0  0  0
    6.2573    1.6693   -2.0696 C   0  0  0  0  0  0  0  0  0  0  0  0
    4.9381    1.5754   -1.6176 C   0  0  0  0  0  0  0  0  0  0  0  0
    2.4721   -0.7056   -0.2535 C   0  0  0  0  0  0  0  0  0  0  0  0
    1.1474   -0.8073    0.1944 C   0  0  0  0  0  0  0  0  0  0  0  0
   -2.5088   -0.7400    2.3522 N   0  0  0  0  0  0  0  0  0  0  0  0
   -3.1519   -1.7902    2.9440 C   0  0  0  0  0  0  0  0  0  0  0  0
   -3.8417   -1.3654    3.9771 N   0  0  0  0  0  0  0  0  0  0  0  0
   -3.5783   -0.0262    3.9901 C   0  0  0  0  0  0  0  0  0  0  0  0
   -2.7699    0.4078    3.0210 N   0  0  0  0  0  0  0  0  0  0  0  0
  1  2  1  0
  2  3  1  0
  2  4  1  0
  2  5  1  0
  5  6  1  1
  5  7  1  0
  7  8  1  6
  8  9  1  0
  9 10  2  0
 10 11  1  0
 11 12  2  0
 12 13  1  0
 13 14  2  0
 14 15  1  0
 15 16  2  0
 16 17  1  0
 17 18  2  0
 12 19  1  0
 19 20  2  0
  7 21  1  0
 21 22  1  0
 22 23  2  0
 23 24  1  0
 24 25  2  0
 20  9  1  0
 25 21  1  0
 18 13  1  0
M  END
