
     RDKit          3D

 10 11  0  0  0  0  0  0  0  0999 V2000
    2.5557    1.3873    0.0486 C   0  0  0  0  0  0  0  0  0  0  0  0
    1.5086    0.3390   -0.1211 C   0  0  0  0  0  0  0  0  0  0  0  0
    1.5030   -0.6096   -1.0798 C   0  0  0  0  0  0  0  0  0  0  0  0
    0.3720   -1.6146   -1.1704 C   0  0  0  0  0  0  0  0  0  0  0  0
   -0.6439   -1.3408   -0.0406 C   0  0  1  0  0  0  0  0  0  0  0  0
    0.1084   -1.1828    1.3226 C   0  0  0  0  0  0  0  0  0  0  0  0
    0.3519    0.2964    0.8467 C   0  0  2  0  0  0  0  0  0  0  0  0
   -1.0741    0.1811    0.1419 C   0  0  0  0  0  0  0  0  0  0  0  0
   -1.3192    1.0022   -1.1309 C   0  0  0  0  0  0  0  0  0  0  0  0
   -2.2775    0.4130    1.0775 C   0  0  0  0  0  0  0  0  0  0  0  0
  1  2  1  0
  2  3  2  0
  3  4  1  0
  5  4  1  6
  5  6  1  0
  7  6  1  1
  7  8  1  0
  8  9  1  0
  8 10  1  0
  7  2  1  0
  8  5  1  0
M  END
