
     RDKit          3D

  9  9  0  0  0  0  0  0  0  0999 V2000
    3.1184    0.0846   -0.3496 O   0  0  0  0  0  0  0  0  0  0  0  0
    1.9163    0.2185   -0.5179 C   0  0  0  0  0  0  0  0  0  0  0  0
    1.3207    1.3115   -1.0806 O   0  0  0  0  0  0  0  0  0  0  0  0
   -0.0984    1.1164   -1.0846 C   0  0  0  0  0  0  0  0  0  0  0  0
   -0.3813    0.0714   -0.0110 C   0  0  0  0  0  0  0  0  0  0  0  0
   -1.6745   -0.6958   -0.2903 C   0  0  0  0  0  0  0  0  0  0  0  0
   -0.4756    0.7298    1.3780 C   0  0  0  0  0  0  0  0  0  0  0  0
    0.8571   -0.8096   -0.1509 C   0  0  2  0  0  0  0  0  0  0  0  0
    1.1154   -1.5807    1.0024 O   0  0  0  0  0  0  0  0  0  0  0  0
  1  2  2  0
  2  3  1  0
  3  4  1  0
  4  5  1  0
  5  6  1  0
  5  7  1  0
  5  8  1  0
  8  9  1  1
  8  2  1  0
M  END
