
     RDKit          3D

 10  9  0  0  0  0  0  0  0  0999 V2000
    0.9079    2.5610   -0.0637 C   0  0  0  0  0  0  0  0  0  0  0  0
   -0.2607    1.7018    0.4045 C   0  0  0  0  0  0  0  0  0  0  0  0
   -0.2450    0.2910   -0.2085 C   0  0  1  0  0  0  0  0  0  0  0  0
    0.9948   -0.3420    0.1854 O   0  0  0  0  0  0  0  0  0  0  0  0
    1.8760   -0.6550   -0.8032 C   0  0  0  0  0  0  0  0  0  0  0  0
    3.0909   -1.3011   -0.2107 C   0  0  0  0  0  0  0  0  0  0  0  0
    1.7206   -0.4484   -1.9977 O   0  0  0  0  0  0  0  0  0  0  0  0
   -1.4072   -0.5982    0.3017 C   0  0  0  0  0  0  0  0  0  0  0  0
   -1.3181   -2.0099   -0.2940 C   0  0  0  0  0  0  0  0  0  0  0  0
   -2.7837   -0.0069   -0.0105 C   0  0  0  0  0  0  0  0  0  0  0  0
  1  2  1  0
  3  2  1  1
  3  4  1  0
  4  5  1  0
  5  6  1  0
  5  7  2  0
  3  8  1  0
  8  9  1  0
  8 10  1  0
M  END
