
     RDKit          3D

 18 19  0  0  0  0  0  0  0  0999 V2000
   -3.7228   -0.3993    1.4628 C   0  0  0  0  0  0  0  0  0  0  0  0
   -3.1002   -0.7801    0.3375 C   0  0  0  0  0  0  0  0  0  0  0  0
   -2.1617    0.0559   -0.5012 C   0  0  1  0  0  0  0  0  0  0  0  0
   -2.6903    0.2658   -1.9153 C   0  0  0  0  0  0  0  0  0  0  0  0
   -1.9268    1.3235    0.0957 O   0  0  0  0  0  0  0  0  0  0  0  0
   -0.5948    1.4548    0.3617 C   0  0  0  0  0  0  0  0  0  0  0  0
   -0.1694    2.4959    0.8391 O   0  0  0  0  0  0  0  0  0  0  0  0
    0.0978    0.3317    0.0038 N   0  0  0  0  0  0  0  0  0  0  0  0
    1.5095    0.1335    0.1589 C   0  0  0  0  0  0  0  0  0  0  0  0
    2.3068    1.0314    0.8914 C   0  0  0  0  0  0  0  0  0  0  0  0
    3.6854    0.8318    1.0406 C   0  0  0  0  0  0  0  0  0  0  0  0
    4.6155    1.9576    1.9534 Cl  0  0  0  0  0  0  0  0  0  0  0  0
    4.3130   -0.2634    0.4670 C   0  0  0  0  0  0  0  0  0  0  0  0
    3.5461   -1.1616   -0.2590 C   0  0  0  0  0  0  0  0  0  0  0  0
    4.3031   -2.5269   -0.9859 Cl  0  0  0  0  0  0  0  0  0  0  0  0
    2.1668   -0.9710   -0.4123 C   0  0  0  0  0  0  0  0  0  0  0  0
   -0.7818   -0.5729   -0.5335 C   0  0  0  0  0  0  0  0  0  0  0  0
   -0.5679   -1.6978   -0.9694 O   0  0  0  0  0  0  0  0  0  0  0  0
  1  2  2  0
  2  3  1  0
  3  4  1  6
  3  5  1  0
  5  6  1  0
  6  7  2  0
  6  8  1  0
  8  9  1  0
  9 10  2  0
 10 11  1  0
 11 12  1  0
 11 13  2  0
 13 14  1  0
 14 15  1  0
 14 16  2  0
  8 17  1  0
 17 18  2  0
 17  3  1  0
 16  9  1  0
M  END
