
     RDKit          3D

 26 27  0  0  0  0  0  0  0  0999 V2000
    1.1904   -6.2756   -0.9520 C   0  0  0  0  0  0  0  0  0  0  0  0
    2.1350   -5.1699   -1.3944 C   0  0  0  0  0  0  0  0  0  0  0  0
    3.3312   -4.9777   -0.4573 C   0  0  0  0  0  0  0  0  0  0  0  0
    2.9601   -4.5586    0.9645 C   0  0  0  0  0  0  0  0  0  0  0  0
    2.1553   -3.3729    0.9538 O   0  0  0  0  0  0  0  0  0  0  0  0
    2.8282   -2.1863    0.9299 C   0  0  0  0  0  0  0  0  0  0  0  0
    4.0507   -2.0690    0.9740 O   0  0  0  0  0  0  0  0  0  0  0  0
    1.8700   -0.9957    0.9060 C   0  0  2  0  0  0  0  0  0  0  0  0
    1.4385   -0.7064    2.3442 C   0  0  0  0  0  0  0  0  0  0  0  0
    0.7413   -1.3131    0.0842 O   0  0  0  0  0  0  0  0  0  0  0  0
   -0.0850   -0.2897   -0.2837 C   0  0  0  0  0  0  0  0  0  0  0  0
    0.3222    1.0141   -0.5729 C   0  0  0  0  0  0  0  0  0  0  0  0
   -0.6221    1.9719   -0.9577 C   0  0  0  0  0  0  0  0  0  0  0  0
   -1.9730    1.6264   -1.0449 C   0  0  0  0  0  0  0  0  0  0  0  0
   -2.9426    2.5210   -1.4365 O   0  0  0  0  0  0  0  0  0  0  0  0
   -2.9670    3.7411   -0.8000 C   0  0  0  0  0  0  0  0  0  0  0  0
   -2.8758    3.8709    0.5935 C   0  0  0  0  0  0  0  0  0  0  0  0
   -2.9411    5.1385    1.1801 C   0  0  0  0  0  0  0  0  0  0  0  0
   -3.1118    6.2768    0.3789 C   0  0  0  0  0  0  0  0  0  0  0  0
   -3.1818    7.5731    0.9849 C   0  0  0  0  0  0  0  0  0  0  0  0
   -3.2346    8.6200    1.4810 N   0  0  0  0  0  0  0  0  0  0  0  0
   -3.2215    6.1434   -1.0103 C   0  0  0  0  0  0  0  0  0  0  0  0
   -3.1575    4.8767   -1.5866 C   0  0  0  0  0  0  0  0  0  0  0  0
   -3.2702    4.7642   -2.9197 F   0  0  0  0  0  0  0  0  0  0  0  0
   -2.3767    0.3154   -0.8024 C   0  0  0  0  0  0  0  0  0  0  0  0
   -1.4312   -0.6391   -0.4235 C   0  0  0  0  0  0  0  0  0  0  0  0
  1  2  1  0
  2  3  1  0
  3  4  1  0
  4  5  1  0
  5  6  1  0
  6  7  2  0
  6  8  1  0
  8  9  1  1
  8 10  1  0
 10 11  1  0
 11 12  2  0
 12 13  1  0
 13 14  2  0
 14 15  1  0
 15 16  1  0
 16 17  2  0
 17 18  1  0
 18 19  2  0
 19 20  1  0
 20 21  3  0
 19 22  1  0
 22 23  2  0
 23 24  1  0
 14 25  1  0
 25 26  2  0
 26 11  1  0
 23 16  1  0
M  END
