
     RDKit          3D

 10 10  0  0  0  0  0  0  0  0999 V2000
    3.6048    0.0945   -0.6735 C   0  0  0  0  0  0  0  0  0  0  0  0
    2.1404    0.0268   -0.3505 C   0  0  0  0  0  0  0  0  0  0  0  0
    1.6450    0.4632    0.8206 C   0  0  0  0  0  0  0  0  0  0  0  0
    0.1811    0.4528    1.1643 C   0  0  0  0  0  0  0  0  0  0  0  0
   -0.7426    0.1936   -0.0469 C   0  0  1  0  0  0  0  0  0  0  0  0
   -0.1449   -0.9319   -0.9117 C   0  0  0  0  0  0  0  0  0  0  0  0
    1.2530   -0.5618   -1.4182 C   0  0  0  0  0  0  0  0  0  0  0  0
   -2.1881   -0.0247    0.4028 C   0  0  0  0  0  0  0  0  0  0  0  0
   -2.8322   -1.2042    0.3626 C   0  0  0  0  0  0  0  0  0  0  0  0
   -2.9064    1.2081    0.8929 C   0  0  0  0  0  0  0  0  0  0  0  0
  1  2  1  0
  2  3  2  0
  3  4  1  0
  4  5  1  0
  5  6  1  0
  6  7  1  0
  5  8  1  1
  8  9  2  0
  8 10  1  0
  7  2  1  0
M  END
