
     RDKit          3D

  9  9  0  0  0  0  0  0  0  0999 V2000
   -2.1249   -0.1007    0.9603 C   0  0  0  0  0  0  0  0  0  0  0  0
   -1.4622    0.3691   -0.3275 C   0  0  1  0  0  0  0  0  0  0  0  0
    0.0381    0.2495   -0.2746 C   0  0  0  0  0  0  0  0  0  0  0  0
    0.8381    1.3805   -0.1405 C   0  0  0  0  0  0  0  0  0  0  0  0
    2.1889    1.3543   -0.0797 N   0  0  0  0  0  0  0  0  0  0  0  0
    2.7771    0.1411   -0.1476 C   0  0  0  0  0  0  0  0  0  0  0  0
    2.0771   -1.0464   -0.2742 C   0  0  0  0  0  0  0  0  0  0  0  0
    0.6881   -0.9883   -0.3369 C   0  0  0  0  0  0  0  0  0  0  0  0
   -1.9813   -0.3983   -1.4129 O   0  0  0  0  0  0  0  0  0  0  0  0
  2  1  1  1
  2  3  1  0
  3  4  2  0
  4  5  1  0
  5  6  2  0
  6  7  1  0
  7  8  2  0
  2  9  1  0
  8  3  1  0
M  END
