
     RDKit          3D

 12 12  0  0  0  0  0  0  0  0999 V2000
    1.5857   -2.2317   -1.0421 C   0  0  0  0  0  0  0  0  0  0  0  0
    1.4199   -0.9378   -1.3556 C   0  0  0  0  0  0  0  0  0  0  0  0
    1.2132    0.2012   -0.3692 C   0  0  1  0  0  0  0  0  0  0  0  0
    2.6155    0.6387    0.0965 C   0  0  0  0  0  0  0  0  0  0  0  0
    0.5332    1.4201   -1.0226 C   0  0  0  0  0  0  0  0  0  0  0  0
   -0.9710    1.2442   -1.1711 C   0  0  0  0  0  0  0  0  0  0  0  0
   -1.5811    0.9306    0.1898 C   0  0  2  0  0  0  0  0  0  0  0  0
   -1.4431    2.0913    1.0197 O   0  0  0  0  0  0  0  0  0  0  0  0
   -0.8990   -0.3031    0.8407 C   0  0  0  0  0  0  0  0  0  0  0  0
   -1.2594   -0.3830    2.3357 C   0  0  0  0  0  0  0  0  0  0  0  0
   -1.4038   -1.5975    0.1809 C   0  0  0  0  0  0  0  0  0  0  0  0
    0.5400   -0.2418    0.8154 O   0  0  0  0  0  0  0  0  0  0  0  0
  1  2  2  0
  2  3  1  0
  3  4  1  1
  3  5  1  0
  5  6  1  0
  6  7  1  0
  7  8  1  1
  7  9  1  0
  9 10  1  0
  9 11  1  0
  9 12  1  0
 12  3  1  0
M  END
