
     RDKit          3D

 26 28  0  0  0  0  0  0  0  0999 V2000
   -4.8103    1.3434   -2.0326 C   0  0  0  0  0  0  0  0  0  0  0  0
   -3.5991    0.8509   -1.2768 C   0  0  0  0  0  0  0  0  0  0  0  0
   -2.4197    1.7922   -1.3651 C   0  0  0  0  0  0  0  0  0  0  0  0
   -3.2818   -0.6327   -1.1838 C   0  0  2  0  0  0  0  0  0  0  0  0
   -4.1081   -1.6252   -1.8894 C   0  0  0  0  0  0  0  0  0  0  0  0
   -4.0247   -1.9804   -3.1810 C   0  0  0  0  0  0  0  0  0  0  0  0
   -5.0857   -3.1816   -3.8247 Cl  0  0  0  0  0  0  0  0  0  0  0  0
   -2.8775   -1.2704   -4.2567 Cl  0  0  0  0  0  0  0  0  0  0  0  0
   -3.8594    0.0900    0.0178 C   0  0  1  0  0  0  0  0  0  0  0  0
   -3.0431    0.3587    1.2258 C   0  0  0  0  0  0  0  0  0  0  0  0
   -3.1718    1.3907    1.8663 O   0  0  0  0  0  0  0  0  0  0  0  0
   -2.1986   -0.6660    1.5008 O   0  0  0  0  0  0  0  0  0  0  0  0
   -1.2885   -0.4338    2.5802 C   0  0  0  0  0  0  0  0  0  0  0  0
    0.0014    0.1129    2.0268 C   0  0  0  0  0  0  0  0  0  0  0  0
    0.2614    1.4903    2.0558 C   0  0  0  0  0  0  0  0  0  0  0  0
    1.4350    2.0024    1.4996 C   0  0  0  0  0  0  0  0  0  0  0  0
    2.3612    1.1440    0.9084 C   0  0  0  0  0  0  0  0  0  0  0  0
    2.1168   -0.2307    0.8862 C   0  0  0  0  0  0  0  0  0  0  0  0
    2.9638   -1.1320    0.2814 O   0  0  0  0  0  0  0  0  0  0  0  0
    4.3115   -0.9963    0.5251 C   0  0  0  0  0  0  0  0  0  0  0  0
    4.8335   -0.8782    1.8156 C   0  0  0  0  0  0  0  0  0  0  0  0
    6.2135   -0.7774    1.9972 C   0  0  0  0  0  0  0  0  0  0  0  0
    7.0676   -0.8114    0.8941 C   0  0  0  0  0  0  0  0  0  0  0  0
    6.5450   -0.9543   -0.3919 C   0  0  0  0  0  0  0  0  0  0  0  0
    5.1658   -1.0550   -0.5764 C   0  0  0  0  0  0  0  0  0  0  0  0
    0.9336   -0.7422    1.4222 C   0  0  0  0  0  0  0  0  0  0  0  0
  1  2  1  0
  2  3  1  0
  2  4  1  0
  4  5  1  6
  5  6  2  3
  6  7  1  0
  6  8  1  0
  4  9  1  0
  9 10  1  1
 10 11  2  0
 10 12  1  0
 12 13  1  0
 13 14  1  0
 14 15  2  0
 15 16  1  0
 16 17  2  0
 17 18  1  0
 18 19  1  0
 19 20  1  0
 20 21  2  0
 21 22  1  0
 22 23  2  0
 23 24  1  0
 24 25  2  0
 18 26  2  0
  9  2  1  0
 26 14  1  0
 25 20  1  0
M  END
