
     RDKit          3D

  8  7  0  0  0  0  0  0  0  0999 V2000
    3.5999    0.3006   -0.0031 C   0  0  0  0  0  0  0  0  0  0  0  0
    2.1432    0.0102   -0.3309 C   0  0  0  0  0  0  0  0  0  0  0  0
    1.3013   -0.1189    0.9392 C   0  0  0  0  0  0  0  0  0  0  0  0
   -0.1520   -0.5205    0.6670 C   0  0  0  0  0  0  0  0  0  0  0  0
   -0.9382    0.5409   -0.1049 C   0  0  0  0  0  0  0  0  0  0  0  0
   -2.4401    0.2442   -0.1879 C   0  0  2  0  0  0  0  0  0  0  0  0
   -2.7625   -1.0260   -0.9621 C   0  0  0  0  0  0  0  0  0  0  0  0
   -3.0836    1.3289   -0.8569 O   0  0  0  0  0  0  0  0  0  0  0  0
  1  2  1  0
  2  3  1  0
  3  4  1  0
  4  5  1  0
  5  6  1  0
  6  7  1  6
  6  8  1  0
M  END
