
     RDKit          3D

  9  9  0  0  0  0  0  0  0  0999 V2000
   -2.1162    0.7039   -0.6376 C   0  0  0  0  0  0  0  0  0  0  0  0
   -1.3579   -0.4951   -0.0846 C   0  0  1  0  0  0  0  0  0  0  0  0
    0.1178   -0.2211    0.0833 C   0  0  0  0  0  0  0  0  0  0  0  0
    0.5837    0.6717    1.0555 C   0  0  0  0  0  0  0  0  0  0  0  0
    1.9481    0.8872    1.1663 C   0  0  0  0  0  0  0  0  0  0  0  0
    2.8683    0.2826    0.3860 N   0  0  0  0  0  0  0  0  0  0  0  0
    2.4023   -0.5720   -0.5486 C   0  0  0  0  0  0  0  0  0  0  0  0
    1.0574   -0.8530   -0.7366 C   0  0  0  0  0  0  0  0  0  0  0  0
   -1.9288   -0.8604    1.1701 O   0  0  0  0  0  0  0  0  0  0  0  0
  2  1  1  1
  2  3  1  0
  3  4  2  0
  4  5  1  0
  5  6  2  0
  6  7  1  0
  7  8  2  0
  2  9  1  0
  8  3  1  0
M  END
