
     RDKit          3D

 24 26  0  0  0  0  0  0  0  0999 V2000
    5.2574    0.9621    1.0767 C   0  0  0  0  0  0  0  0  0  0  0  0
    4.6111    1.4540   -0.1882 C   0  0  0  0  0  0  0  0  0  0  0  0
    4.8260    2.9124   -0.4832 C   0  0  0  0  0  0  0  0  0  0  0  0
    3.8847    0.6761   -1.0141 C   0  0  0  0  0  0  0  0  0  0  0  0
    3.5836   -0.7520   -0.8482 C   0  0  2  0  0  0  0  0  0  0  0  0
    2.2829   -1.3584   -1.3370 C   0  0  2  0  0  0  0  0  0  0  0  0
    1.2532   -0.5812   -2.0627 C   0  0  0  0  0  0  0  0  0  0  0  0
    1.4823   -0.0303   -3.1297 O   0  0  0  0  0  0  0  0  0  0  0  0
    0.0487   -0.6376   -1.4415 O   0  0  0  0  0  0  0  0  0  0  0  0
   -0.9712    0.0648   -2.1457 C   0  0  0  0  0  0  0  0  0  0  0  0
   -2.1521    0.0443   -1.3271 N   0  0  0  0  0  0  0  0  0  0  0  0
   -3.0631   -0.9608   -1.3236 C   0  0  0  0  0  0  0  0  0  0  0  0
   -3.0979   -1.9655   -2.0077 O   0  0  0  0  0  0  0  0  0  0  0  0
   -4.0572   -0.6117   -0.3061 C   0  0  0  0  0  0  0  0  0  0  0  0
   -3.7062    0.5591    0.2306 C   0  0  0  0  0  0  0  0  0  0  0  0
   -4.4430    1.2551    1.3122 C   0  0  0  0  0  0  0  0  0  0  0  0
   -5.4819    0.3168    1.9532 C   0  0  0  0  0  0  0  0  0  0  0  0
   -6.2215   -0.5419    0.9146 C   0  0  0  0  0  0  0  0  0  0  0  0
   -5.2585   -1.3959    0.0659 C   0  0  0  0  0  0  0  0  0  0  0  0
   -2.4684    1.0001   -0.4160 C   0  0  0  0  0  0  0  0  0  0  0  0
   -1.8809    2.0370   -0.1620 O   0  0  0  0  0  0  0  0  0  0  0  0
    2.5379   -1.2123    0.1588 C   0  0  0  0  0  0  0  0  0  0  0  0
    2.8329   -2.4744    0.9338 C   0  0  0  0  0  0  0  0  0  0  0  0
    1.7572   -0.1971    0.9648 C   0  0  0  0  0  0  0  0  0  0  0  0
  1  2  1  0
  2  3  1  0
  2  4  2  3
  5  4  1  6
  5  6  1  0
  6  7  1  6
  7  8  2  0
  7  9  1  0
  9 10  1  0
 10 11  1  0
 11 12  1  0
 12 13  2  0
 12 14  1  0
 14 15  2  0
 15 16  1  0
 16 17  1  0
 17 18  1  0
 18 19  1  0
 15 20  1  0
 20 21  2  0
  6 22  1  0
 22 23  1  0
 22 24  1  0
 22  5  1  0
 20 11  1  0
 19 14  1  0
M  END
