
     RDKit          3D

 16 16  0  0  0  0  0  0  0  0999 V2000
    4.7203   -0.7315    1.7712 C   0  0  0  0  0  0  0  0  0  0  0  0
    3.7416   -0.3325    0.7048 C   0  0  0  0  0  0  0  0  0  0  0  0
    3.5724    0.9488    0.3342 C   0  0  0  0  0  0  0  0  0  0  0  0
    2.5790    1.4035   -0.7008 C   0  0  0  0  0  0  0  0  0  0  0  0
    1.5130    0.3465   -1.0842 C   0  0  1  0  0  0  0  0  0  0  0  0
    2.2166   -1.0245   -1.1951 C   0  0  0  0  0  0  0  0  0  0  0  0
    2.9601   -1.4529    0.0703 C   0  0  0  0  0  0  0  0  0  0  0  0
    0.2147    0.4055   -0.1888 C   0  0  1  0  0  0  0  0  0  0  0  0
   -0.6195    1.6307   -0.6050 C   0  0  0  0  0  0  0  0  0  0  0  0
   -0.6259   -0.8945   -0.2900 C   0  0  0  0  0  0  0  0  0  0  0  0
   -1.9665   -0.9103    0.4693 C   0  0  0  0  0  0  0  0  0  0  0  0
   -3.1318   -0.4488   -0.3677 C   0  0  0  0  0  0  0  0  0  0  0  0
   -4.0690    0.4695   -0.0597 C   0  0  0  0  0  0  0  0  0  0  0  0
   -5.1708    0.7950   -1.0351 C   0  0  0  0  0  0  0  0  0  0  0  0
   -4.1402    1.2474    1.2257 C   0  0  0  0  0  0  0  0  0  0  0  0
    0.5394    0.6132    1.1885 O   0  0  0  0  0  0  0  0  0  0  0  0
  1  2  1  0
  2  3  2  0
  3  4  1  0
  5  4  1  1
  5  6  1  0
  6  7  1  0
  5  8  1  0
  8  9  1  6
  8 10  1  0
 10 11  1  0
 11 12  1  0
 12 13  2  3
 13 14  1  0
 13 15  1  0
  8 16  1  0
  7  2  1  0
M  END
