
     RDKit          3D

 12 12  0  0  0  0  0  0  0  0999 V2000
    2.7151    1.3315    0.2127 C   0  0  0  0  0  0  0  0  0  0  0  0
    2.4228    0.0792   -0.1688 C   0  0  0  0  0  0  0  0  0  0  0  0
    1.1135   -0.6646    0.0702 C   0  0  2  0  0  0  0  0  0  0  0  0
    1.4391   -1.9435    0.8521 C   0  0  0  0  0  0  0  0  0  0  0  0
    0.4833   -1.0140   -1.2904 C   0  0  0  0  0  0  0  0  0  0  0  0
   -0.2508    0.1802   -1.8704 C   0  0  0  0  0  0  0  0  0  0  0  0
   -1.3255    0.7147   -0.9215 C   0  0  2  0  0  0  0  0  0  0  0  0
   -1.3921    2.1345   -1.1116 O   0  0  0  0  0  0  0  0  0  0  0  0
   -1.0960    0.3339    0.5750 C   0  0  0  0  0  0  0  0  0  0  0  0
   -1.5785    1.4567    1.5127 C   0  0  0  0  0  0  0  0  0  0  0  0
   -1.8852   -0.9323    0.9573 C   0  0  0  0  0  0  0  0  0  0  0  0
    0.2886    0.1566    0.9013 O   0  0  0  0  0  0  0  0  0  0  0  0
  1  2  2  0
  2  3  1  0
  3  4  1  1
  3  5  1  0
  5  6  1  0
  6  7  1  0
  7  8  1  1
  7  9  1  0
  9 10  1  0
  9 11  1  0
  9 12  1  0
 12  3  1  0
M  END
