
     RDKit          3D

  8  8  0  0  0  0  0  0  0  0999 V2000
   -1.6895    0.6597    0.8060 C   0  0  0  0  0  0  0  0  0  0  0  0
   -1.0385    0.0589   -0.4351 C   0  0  1  0  0  0  0  0  0  0  0  0
    0.4612    0.0391   -0.3252 C   0  0  0  0  0  0  0  0  0  0  0  0
    1.2969    1.0439   -0.7811 C   0  0  0  0  0  0  0  0  0  0  0  0
    2.9512    0.7205   -0.4907 S   0  0  0  0  0  0  0  0  0  0  0  0
    2.5841   -0.7757    0.2461 C   0  0  0  0  0  0  0  0  0  0  0  0
    1.2291   -1.0181    0.2713 C   0  0  0  0  0  0  0  0  0  0  0  0
   -1.5532   -1.2586   -0.6301 O   0  0  0  0  0  0  0  0  0  0  0  0
  2  1  1  1
  2  3  1  0
  3  4  2  0
  4  5  1  0
  5  6  1  0
  6  7  2  0
  2  8  1  0
  7  3  1  0
M  END
