
     RDKit          3D

 10  9  0  0  0  0  0  0  0  0999 V2000
    3.8811   -0.3517   -0.2408 C   0  0  0  0  0  0  0  0  0  0  0  0
    3.1556    0.9828   -0.3170 C   0  0  0  0  0  0  0  0  0  0  0  0
    1.7048    0.8637   -0.7886 C   0  0  0  0  0  0  0  0  0  0  0  0
    0.8094    0.1028    0.1910 C   0  0  0  0  0  0  0  0  0  0  0  0
   -0.6465    0.1060   -0.2733 C   0  0  0  0  0  0  0  0  0  0  0  0
   -1.5532   -0.6698    0.6663 C   0  0  0  0  0  0  0  0  0  0  0  0
   -1.1804   -1.0846    1.7669 O   0  0  0  0  0  0  0  0  0  0  0  0
   -2.9893   -0.9234    0.1945 C   0  0  2  0  0  0  0  0  0  0  0  0
   -3.8075    0.3548    0.2095 C   0  0  0  0  0  0  0  0  0  0  0  0
   -3.6280   -1.8740    1.0442 O   0  0  0  0  0  0  0  0  0  0  0  0
  1  2  1  0
  2  3  1  0
  3  4  1  0
  4  5  1  0
  5  6  1  0
  6  7  2  0
  6  8  1  0
  8  9  1  1
  8 10  1  0
M  END
