
     RDKit          3D

 26 28  0  0  0  0  0  0  0  0999 V2000
   -4.8285   -0.6316    2.4031 C   0  0  0  0  0  0  0  0  0  0  0  0
   -3.3767   -0.3683    2.0617 C   0  0  0  0  0  0  0  0  0  0  0  0
   -2.4774   -0.4128    3.2764 C   0  0  0  0  0  0  0  0  0  0  0  0
   -2.8792   -0.8895    0.7191 C   0  0  2  0  0  0  0  0  0  0  0  0
   -1.5273   -1.4651    0.4824 C   0  0  0  0  0  0  0  0  0  0  0  0
   -0.5621   -1.2503    1.2029 O   0  0  0  0  0  0  0  0  0  0  0  0
   -1.5176   -2.1975   -0.6618 O   0  0  0  0  0  0  0  0  0  0  0  0
   -0.2277   -2.6510   -1.0944 C   0  0  0  0  0  0  0  0  0  0  0  0
    0.3356   -1.6590   -2.0801 C   0  0  0  0  0  0  0  0  0  0  0  0
    0.0194   -1.7502   -3.4426 C   0  0  0  0  0  0  0  0  0  0  0  0
    0.4970   -0.7988   -4.3463 C   0  0  0  0  0  0  0  0  0  0  0  0
    1.2888    0.2570   -3.8953 C   0  0  0  0  0  0  0  0  0  0  0  0
    1.6176    0.3532   -2.5440 C   0  0  0  0  0  0  0  0  0  0  0  0
    2.3537    1.4549   -2.1650 O   0  0  0  0  0  0  0  0  0  0  0  0
    3.3306    1.2670   -1.2095 C   0  0  0  0  0  0  0  0  0  0  0  0
    3.3468    2.1552   -0.1292 C   0  0  0  0  0  0  0  0  0  0  0  0
    4.3306    2.0341    0.8539 C   0  0  0  0  0  0  0  0  0  0  0  0
    5.3032    1.0377    0.7457 C   0  0  0  0  0  0  0  0  0  0  0  0
    5.2968    0.1633   -0.3491 C   0  0  0  0  0  0  0  0  0  0  0  0
    4.3162    0.2823   -1.3321 C   0  0  0  0  0  0  0  0  0  0  0  0
    1.1319   -0.5919   -1.6355 C   0  0  0  0  0  0  0  0  0  0  0  0
   -3.1015    0.6012    0.9179 C   0  0  2  0  0  0  0  0  0  0  0  0
   -1.9801    1.5587    0.9814 C   0  0  0  0  0  0  0  0  0  0  0  0
   -1.9390    2.7220    1.6507 C   0  0  0  0  0  0  0  0  0  0  0  0
   -3.2714    3.2829    2.5952 Cl  0  0  0  0  0  0  0  0  0  0  0  0
   -0.5268    3.7155    1.5961 Cl  0  0  0  0  0  0  0  0  0  0  0  0
  1  2  1  0
  2  3  1  0
  2  4  1  0
  4  5  1  1
  5  6  2  0
  5  7  1  0
  7  8  1  0
  8  9  1  0
  9 10  2  0
 10 11  1  0
 11 12  2  0
 12 13  1  0
 13 14  1  0
 14 15  1  0
 15 16  2  0
 16 17  1  0
 17 18  2  0
 18 19  1  0
 19 20  2  0
 13 21  2  0
  4 22  1  0
 22 23  1  1
 23 24  2  3
 24 25  1  0
 24 26  1  0
 22  2  1  0
 21  9  1  0
 20 15  1  0
M  END
