
     RDKit          3D

 12 12  0  0  0  0  0  0  0  0999 V2000
    1.4434   -0.6284    0.0831 C   0  0  2  0  0  0  0  0  0  0  0  0
    2.1443   -0.6277   -1.1790 O   0  0  0  0  0  0  0  0  0  0  0  0
   -0.0073   -0.2561   -0.1466 C   0  0  0  0  0  0  0  0  0  0  0  0
   -0.3715    0.7053   -1.1020 C   0  0  0  0  0  0  0  0  0  0  0  0
   -1.7099    1.0574   -1.2841 C   0  0  0  0  0  0  0  0  0  0  0  0
   -2.7009    0.4569   -0.5111 C   0  0  0  0  0  0  0  0  0  0  0  0
   -2.3551   -0.4956    0.4447 C   0  0  0  0  0  0  0  0  0  0  0  0
   -1.0170   -0.8497    0.6281 C   0  0  0  0  0  0  0  0  0  0  0  0
    2.1238    0.2644    1.1406 C   0  0  0  0  0  0  0  0  0  0  0  0
    2.0906    1.5767    0.8251 F   0  0  0  0  0  0  0  0  0  0  0  0
    3.4342   -0.0856    1.2439 F   0  0  0  0  0  0  0  0  0  0  0  0
    1.5770    0.1078    2.3669 F   0  0  0  0  0  0  0  0  0  0  0  0
  1  2  1  6
  1  3  1  0
  3  4  2  0
  4  5  1  0
  5  6  2  0
  6  7  1  0
  7  8  2  0
  1  9  1  0
  9 10  1  0
  9 11  1  0
  9 12  1  0
  8  3  1  0
M  END
