
     RDKit          3D

 10 11  0  0  0  0  0  0  0  0999 V2000
    2.7695   -0.7952    0.3951 C   0  0  0  0  0  0  0  0  0  0  0  0
    1.5492    0.0001    0.0751 C   0  0  0  0  0  0  0  0  0  0  0  0
    1.4003    1.3224    0.2946 C   0  0  0  0  0  0  0  0  0  0  0  0
    0.1029    2.0253   -0.0516 C   0  0  0  0  0  0  0  0  0  0  0  0
   -0.8858    1.0025   -0.6516 C   0  0  1  0  0  0  0  0  0  0  0  0
   -0.1712    0.1623   -1.7619 C   0  0  0  0  0  0  0  0  0  0  0  0
    0.3685   -0.6938   -0.5580 C   0  0  2  0  0  0  0  0  0  0  0  0
   -1.0246   -0.3680    0.1468 C   0  0  0  0  0  0  0  0  0  0  0  0
   -2.1974   -1.2661   -0.2946 C   0  0  0  0  0  0  0  0  0  0  0  0
   -1.0584   -0.2913    1.6789 C   0  0  0  0  0  0  0  0  0  0  0  0
  1  2  1  0
  2  3  2  0
  3  4  1  0
  5  4  1  1
  5  6  1  0
  7  6  1  6
  7  8  1  0
  8  9  1  0
  8 10  1  0
  7  2  1  0
  8  5  1  0
M  END
