
     RDKit          3D

 17 16  0  0  0  0  0  0  0  0999 V2000
   -3.5078   -1.8667    0.7982 C   0  0  0  0  0  0  0  0  0  0  0  0
   -2.3869   -1.5671    1.1829 O   0  0  0  0  0  0  0  0  0  0  0  0
   -4.2807   -1.1319   -0.0477 O   0  0  0  0  0  0  0  0  0  0  0  0
   -3.7087    0.1123   -0.5088 C   0  0  2  0  0  0  0  0  0  0  0  0
   -4.8825    1.0182   -0.8732 C   0  0  0  0  0  0  0  0  0  0  0  0
   -2.7889   -0.1649   -1.7105 C   0  0  0  0  0  0  0  0  0  0  0  0
   -2.0780    1.0569   -2.2234 C   0  0  0  0  0  0  0  0  0  0  0  0
   -0.8178    1.4285   -1.9424 C   0  0  0  0  0  0  0  0  0  0  0  0
    0.1514    0.7452   -1.0190 C   0  0  0  0  0  0  0  0  0  0  0  0
    1.2924    0.1457   -1.7894 C   0  0  0  0  0  0  0  0  0  0  0  0
    2.5770    0.5392   -1.7984 C   0  0  0  0  0  0  0  0  0  0  0  0
    3.1789    1.7102   -1.0739 C   0  0  0  0  0  0  0  0  0  0  0  0
    4.1323    1.2919    0.0494 C   0  0  0  0  0  0  0  0  0  0  0  0
    3.4165    0.6096    1.2192 C   0  0  0  0  0  0  0  0  0  0  0  0
    4.3920    0.2807    2.3497 C   0  0  0  0  0  0  0  0  0  0  0  0
    3.6868   -0.3975    3.5136 C   0  0  0  0  0  0  0  0  0  0  0  0
   -4.2320   -3.1167    1.1942 C   0  0  0  0  0  0  0  0  0  0  0  0
  1  2  2  0
  1  3  1  0
  3  4  1  0
  4  5  1  6
  4  6  1  0
  6  7  1  0
  7  8  2  0
  8  9  1  0
  9 10  1  0
 10 11  2  0
 11 12  1  0
 12 13  1  0
 13 14  1  0
 14 15  1  0
 15 16  1  0
  1 17  1  0
M  END
