
     RDKit          3D

 19 18  0  0  0  0  0  0  0  0999 V2000
   -4.0224   -2.8597   -0.9153 C   0  0  0  0  0  0  0  0  0  0  0  0
   -3.5690   -1.9488    0.2099 C   0  0  0  0  0  0  0  0  0  0  0  0
   -2.1543   -1.7204    0.1220 O   0  0  0  0  0  0  0  0  0  0  0  0
   -1.7687   -0.6869   -0.6765 C   0  0  0  0  0  0  0  0  0  0  0  0
   -2.5188    0.0231   -1.3298 O   0  0  0  0  0  0  0  0  0  0  0  0
   -0.2637   -0.5695   -0.6576 C   0  0  0  0  0  0  0  0  0  0  0  0
    0.1817    0.7277   -1.3321 C   0  0  2  0  0  0  0  0  0  0  0  0
    1.9706    0.6665   -1.7383 S   0  0  0  0  0  0  0  0  0  0  0  0
    3.0001    0.3763    0.0778 P   0  0  0  0  0  5  0  0  0  0  0  0
    2.7872    1.6628    1.5240 S   0  0  0  0  0  0  0  0  0  0  0  0
    2.6242   -1.1420    0.5339 O   0  0  0  0  0  0  0  0  0  0  0  0
    3.2423   -1.6953    1.6818 C   0  0  0  0  0  0  0  0  0  0  0  0
    4.5734    0.1756   -0.2844 O   0  0  0  0  0  0  0  0  0  0  0  0
    4.9551   -0.7029   -1.3237 C   0  0  0  0  0  0  0  0  0  0  0  0
   -0.1190    2.0022   -0.5440 C   0  0  0  0  0  0  0  0  0  0  0  0
    0.1706    3.1254   -0.9398 O   0  0  0  0  0  0  0  0  0  0  0  0
   -0.7510    1.7377    0.6319 O   0  0  0  0  0  0  0  0  0  0  0  0
   -1.0819    2.8780    1.4402 C   0  0  0  0  0  0  0  0  0  0  0  0
   -2.4423    3.4163    1.0395 C   0  0  0  0  0  0  0  0  0  0  0  0
  1  2  1  0
  2  3  1  0
  3  4  1  0
  4  5  2  0
  4  6  1  0
  7  6  1  1
  7  8  1  0
  8  9  1  0
  9 10  2  0
  9 11  1  0
 11 12  1  0
  9 13  1  0
 13 14  1  0
  7 15  1  0
 15 16  2  0
 15 17  1  0
 17 18  1  0
 18 19  1  0
M  END
