
     RDKit          3D

 10 11  0  0  0  0  0  0  0  0999 V2000
    2.4825    1.5002    0.2126 C   0  0  0  0  0  0  0  0  0  0  0  0
    1.4997    0.3852    0.0906 C   0  0  0  0  0  0  0  0  0  0  0  0
    1.6386   -0.8401    0.6368 C   0  0  0  0  0  0  0  0  0  0  0  0
    0.5619   -1.8929    0.4652 C   0  0  0  0  0  0  0  0  0  0  0  0
   -0.5874   -1.3115   -0.3861 C   0  0  2  0  0  0  0  0  0  0  0  0
   -0.0045   -0.6229   -1.6649 C   0  0  0  0  0  0  0  0  0  0  0  0
    0.2406    0.6037   -0.7115 C   0  0  1  0  0  0  0  0  0  0  0  0
   -1.0890    0.1392    0.0367 C   0  0  0  0  0  0  0  0  0  0  0  0
   -1.2133    0.4327    1.5376 C   0  0  0  0  0  0  0  0  0  0  0  0
   -2.4003    0.5984   -0.6317 C   0  0  0  0  0  0  0  0  0  0  0  0
  1  2  1  0
  2  3  2  0
  3  4  1  0
  5  4  1  1
  5  6  1  0
  7  6  1  6
  7  8  1  0
  8  9  1  0
  8 10  1  0
  7  2  1  0
  8  5  1  0
M  END
