
     RDKit          3D

 10 10  0  0  0  0  0  0  0  0999 V2000
   -2.3923    1.4789    0.0360 C   0  0  0  0  0  0  0  0  0  0  0  0
   -1.7867    0.0778    0.2010 C   0  0  0  0  0  0  0  0  0  0  0  0
   -2.7806   -0.9415   -0.3773 C   0  0  0  0  0  0  0  0  0  0  0  0
   -0.3734   -0.0395   -0.4519 C   0  0  1  0  0  0  0  0  0  0  0  0
    0.5594    1.1071    0.0051 C   0  0  0  0  0  0  0  0  0  0  0  0
    2.0149    0.8602   -0.3908 C   0  0  0  0  0  0  0  0  0  0  0  0
    2.5118   -0.4570    0.1477 C   0  0  0  0  0  0  0  0  0  0  0  0
    3.7548   -0.6142    0.6258 C   0  0  0  0  0  0  0  0  0  0  0  0
    1.5725   -1.5573    0.1089 C   0  0  0  0  0  0  0  0  0  0  0  0
    0.2750   -1.3868   -0.1875 C   0  0  0  0  0  0  0  0  0  0  0  0
  1  2  1  0
  2  3  1  0
  4  2  1  1
  4  5  1  0
  5  6  1  0
  6  7  1  0
  7  8  2  0
  7  9  1  0
  9 10  2  0
 10  4  1  0
M  END
