
     RDKit          3D

 24 26  0  0  0  0  0  0  0  0999 V2000
    6.1771    0.9736   -1.6487 C   0  0  0  0  0  0  0  0  0  0  0  0
    5.4350   -0.0370   -0.8177 C   0  0  0  0  0  0  0  0  0  0  0  0
    6.2941   -0.8300    0.1278 C   0  0  0  0  0  0  0  0  0  0  0  0
    4.0999   -0.1919   -0.9360 C   0  0  0  0  0  0  0  0  0  0  0  0
    3.2471   -1.1338   -0.2007 C   0  0  2  0  0  0  0  0  0  0  0  0
    1.7968   -0.8512    0.1272 C   0  0  2  0  0  0  0  0  0  0  0  0
    1.0487    0.3801   -0.2358 C   0  0  0  0  0  0  0  0  0  0  0  0
    1.5646    1.4222   -0.6113 O   0  0  0  0  0  0  0  0  0  0  0  0
   -0.2885    0.1891   -0.0797 O   0  0  0  0  0  0  0  0  0  0  0  0
   -1.0501    1.3462   -0.4180 C   0  0  0  0  0  0  0  0  0  0  0  0
   -2.4417    1.0112   -0.2933 N   0  0  0  0  0  0  0  0  0  0  0  0
   -3.1750    1.1782    0.8364 C   0  0  0  0  0  0  0  0  0  0  0  0
   -2.8371    1.6434    1.9088 O   0  0  0  0  0  0  0  0  0  0  0  0
   -4.5204    0.6845    0.5329 C   0  0  0  0  0  0  0  0  0  0  0  0
   -4.5225    0.2413   -0.7266 C   0  0  0  0  0  0  0  0  0  0  0  0
   -5.6962   -0.3290   -1.4276 C   0  0  0  0  0  0  0  0  0  0  0  0
   -6.9876   -0.0554   -0.6353 C   0  0  0  0  0  0  0  0  0  0  0  0
   -6.7994   -0.2441    0.8796 C   0  0  0  0  0  0  0  0  0  0  0  0
   -5.6830    0.6493    1.4505 C   0  0  0  0  0  0  0  0  0  0  0  0
   -3.1819    0.4447   -1.2802 C   0  0  0  0  0  0  0  0  0  0  0  0
   -2.8511    0.1484   -2.4133 O   0  0  0  0  0  0  0  0  0  0  0  0
    2.8380   -0.8581    1.2403 C   0  0  0  0  0  0  0  0  0  0  0  0
    3.2243    0.4376    1.9170 C   0  0  0  0  0  0  0  0  0  0  0  0
    2.8220   -2.0322    2.1902 C   0  0  0  0  0  0  0  0  0  0  0  0
  1  2  1  0
  2  3  1  0
  2  4  2  3
  5  4  1  6
  5  6  1  0
  6  7  1  6
  7  8  2  0
  7  9  1  0
  9 10  1  0
 10 11  1  0
 11 12  1  0
 12 13  2  0
 12 14  1  0
 14 15  2  0
 15 16  1  0
 16 17  1  0
 17 18  1  0
 18 19  1  0
 15 20  1  0
 20 21  2  0
  6 22  1  0
 22 23  1  0
 22 24  1  0
 22  5  1  0
 20 11  1  0
 19 14  1  0
M  END
