
     RDKit          3D

 26 28  0  0  0  0  0  0  0  0999 V2000
    3.6846   -1.8893    0.6331 C   0  0  0  0  0  0  0  0  0  0  0  0
    3.6258   -0.3991    0.8718 C   0  0  0  0  0  0  0  0  0  0  0  0
    2.8541   -0.0274    2.1167 C   0  0  0  0  0  0  0  0  0  0  0  0
    4.7847    0.5079    0.4861 C   0  0  1  0  0  0  0  0  0  0  0  0
    6.0350   -0.0621   -0.0429 C   0  0  0  0  0  0  0  0  0  0  0  0
    6.7965    0.4104   -1.0419 C   0  0  0  0  0  0  0  0  0  0  0  0
    8.2495   -0.4113   -1.4915 Cl  0  0  0  0  0  0  0  0  0  0  0  0
    6.3873    1.8404   -1.9177 Cl  0  0  0  0  0  0  0  0  0  0  0  0
    3.5298    0.4861   -0.3642 C   0  0  2  0  0  0  0  0  0  0  0  0
    2.6203    1.6551   -0.3894 C   0  0  0  0  0  0  0  0  0  0  0  0
    2.9995    2.7939   -0.1609 O   0  0  0  0  0  0  0  0  0  0  0  0
    1.3524    1.2742   -0.6820 O   0  0  0  0  0  0  0  0  0  0  0  0
    0.4175    2.3568   -0.6706 C   0  0  0  0  0  0  0  0  0  0  0  0
   -0.9804    1.8688   -0.9793 C   0  0  0  0  0  0  0  0  0  0  0  0
   -1.9569    2.7980   -1.3791 C   0  0  0  0  0  0  0  0  0  0  0  0
   -3.2629    2.3882   -1.6562 C   0  0  0  0  0  0  0  0  0  0  0  0
   -3.6155    1.0455   -1.5245 C   0  0  0  0  0  0  0  0  0  0  0  0
   -2.6635    0.1163   -1.0956 C   0  0  0  0  0  0  0  0  0  0  0  0
   -2.9248   -1.2322   -0.9768 O   0  0  0  0  0  0  0  0  0  0  0  0
   -4.1256   -1.5952   -0.4108 C   0  0  0  0  0  0  0  0  0  0  0  0
   -4.5361   -1.1207    0.8384 C   0  0  0  0  0  0  0  0  0  0  0  0
   -5.7476   -1.5544    1.3797 C   0  0  0  0  0  0  0  0  0  0  0  0
   -6.5368   -2.4686    0.6802 C   0  0  0  0  0  0  0  0  0  0  0  0
   -6.1125   -2.9575   -0.5575 C   0  0  0  0  0  0  0  0  0  0  0  0
   -4.9011   -2.5269   -1.1003 C   0  0  0  0  0  0  0  0  0  0  0  0
   -1.3519    0.5227   -0.8358 C   0  0  0  0  0  0  0  0  0  0  0  0
  1  2  1  0
  2  3  1  0
  2  4  1  0
  4  5  1  6
  5  6  2  3
  6  7  1  0
  6  8  1  0
  4  9  1  0
  9 10  1  1
 10 11  2  0
 10 12  1  0
 12 13  1  0
 13 14  1  0
 14 15  2  0
 15 16  1  0
 16 17  2  0
 17 18  1  0
 18 19  1  0
 19 20  1  0
 20 21  2  0
 21 22  1  0
 22 23  2  0
 23 24  1  0
 24 25  2  0
 18 26  2  0
  9  2  1  0
 26 14  1  0
 25 20  1  0
M  END
