
     RDKit          3D

 26 27  0  0  0  0  0  0  0  0999 V2000
   -3.0183    4.2658    1.3286 N   0  0  0  0  0  0  0  0  0  0  0  0
   -2.5676    3.2615    0.9560 C   0  0  0  0  0  0  0  0  0  0  0  0
   -1.9733    2.0352    0.5014 C   0  0  0  0  0  0  0  0  0  0  0  0
   -0.6378    1.9476    0.4833 N   0  0  0  0  0  0  0  0  0  0  0  0
   -0.3754    0.7075    0.0057 N   0  0  0  0  0  0  0  0  0  0  0  0
    0.9657    0.2722   -0.0963 C   0  0  0  0  0  0  0  0  0  0  0  0
    1.8954    1.0381   -0.8190 C   0  0  0  0  0  0  0  0  0  0  0  0
    1.4689    2.4378   -1.7445 Cl  0  0  0  0  0  0  0  0  0  0  0  0
    3.2330    0.6282   -0.8987 C   0  0  0  0  0  0  0  0  0  0  0  0
    3.6656   -0.5447   -0.2664 C   0  0  0  0  0  0  0  0  0  0  0  0
    5.1129   -0.9699   -0.3347 C   0  0  0  0  0  0  0  0  0  0  0  0
    5.2637   -2.3223   -0.3071 F   0  0  0  0  0  0  0  0  0  0  0  0
    5.7383   -0.5470   -1.4663 F   0  0  0  0  0  0  0  0  0  0  0  0
    5.8401   -0.4861    0.7065 F   0  0  0  0  0  0  0  0  0  0  0  0
    2.7355   -1.2944    0.4667 C   0  0  0  0  0  0  0  0  0  0  0  0
    1.3958   -0.8930    0.5567 C   0  0  0  0  0  0  0  0  0  0  0  0
    0.3823   -1.8460    1.5859 Cl  0  0  0  0  0  0  0  0  0  0  0  0
   -1.5478    0.0087   -0.3109 C   0  0  0  0  0  0  0  0  0  0  0  0
   -1.5626   -1.2202   -0.8955 N   0  0  0  0  0  0  0  0  0  0  0  0
   -2.5797    0.8577    0.0332 C   0  0  0  0  0  0  0  0  0  0  0  0
   -4.3272    0.5565   -0.1714 S   0  0  0  0  0  4  0  0  0  0  0  0
   -5.0425    1.7017    0.4847 O   0  0  0  0  0  0  0  0  0  0  0  0
   -4.4584   -0.9324    0.8511 C   0  0  0  0  0  0  0  0  0  0  0  0
   -3.9071   -2.0111    0.2269 F   0  0  0  0  0  0  0  0  0  0  0  0
   -3.8366   -0.8084    2.0505 F   0  0  0  0  0  0  0  0  0  0  0  0
   -5.7511   -1.2624    1.1018 F   0  0  0  0  0  0  0  0  0  0  0  0
  1  2  3  0
  2  3  1  0
  3  4  2  0
  4  5  1  0
  5  6  1  0
  6  7  2  0
  7  8  1  0
  7  9  1  0
  9 10  2  0
 10 11  1  0
 11 12  1  0
 11 13  1  0
 11 14  1  0
 10 15  1  0
 15 16  2  0
 16 17  1  0
  5 18  1  0
 18 19  1  0
 18 20  2  0
 20 21  1  0
 21 22  2  0
 21 23  1  1
 23 24  1  0
 23 25  1  0
 23 26  1  0
 20  3  1  0
 16  6  1  0
M  END
