
     RDKit          3D

 24 25  0  0  0  0  0  0  0  0999 V2000
   -2.4604    1.9355   -1.6154 C   0  0  0  0  0  0  0  0  0  0  0  0
   -3.5054    1.0416   -0.9536 C   0  0  0  0  0  0  0  0  0  0  0  0
   -4.5558    0.5828   -1.9656 C   0  0  0  0  0  0  0  0  0  0  0  0
   -2.8982   -0.1170   -0.1324 C   0  0  0  0  0  0  0  0  0  0  0  0
   -1.7630   -0.9663   -0.7549 C   0  0  2  0  0  0  0  0  0  0  0  0
   -2.1507   -1.6976   -2.0428 C   0  0  0  0  0  0  0  0  0  0  0  0
   -1.2060   -1.9451    0.2833 C   0  0  0  0  0  0  0  0  0  0  0  0
   -2.1893   -3.2706    0.7951 S   0  0  0  0  0  0  0  0  0  0  0  0
   -0.9927   -3.8478    1.8523 C   0  0  0  0  0  0  0  0  0  0  0  0
    0.1322   -3.0583    1.8317 C   0  0  0  0  0  0  0  0  0  0  0  0
    0.0281   -1.9522    0.9295 C   0  0  0  0  0  0  0  0  0  0  0  0
    1.0011   -0.9756    0.7017 N   0  0  0  0  0  0  0  0  0  0  0  0
    2.2734   -0.9692    1.2455 C   0  0  0  0  0  0  0  0  0  0  0  0
    2.7572   -1.8600    1.9349 O   0  0  0  0  0  0  0  0  0  0  0  0
    3.0864    0.1942    0.8958 C   0  0  0  0  0  0  0  0  0  0  0  0
    4.4668    0.1747    0.7983 C   0  0  0  0  0  0  0  0  0  0  0  0
    4.8577    1.4343    0.4749 N   0  0  0  0  0  0  0  0  0  0  0  0
    6.2080    1.8993    0.2644 C   0  0  0  0  0  0  0  0  0  0  0  0
    3.8350    2.2957    0.3592 N   0  0  0  0  0  0  0  0  0  0  0  0
    2.7406    1.5604    0.6473 C   0  0  0  0  0  0  0  0  0  0  0  0
    1.3651    2.1602    0.7036 C   0  0  0  0  0  0  0  0  0  0  0  0
    0.7998    2.0177    1.9307 F   0  0  0  0  0  0  0  0  0  0  0  0
    1.3125    3.4791    0.3908 F   0  0  0  0  0  0  0  0  0  0  0  0
    0.5364    1.5197   -0.1710 F   0  0  0  0  0  0  0  0  0  0  0  0
  1  2  1  0
  2  3  1  0
  2  4  1  0
  4  5  1  0
  5  6  1  6
  5  7  1  0
  7  8  1  0
  8  9  1  0
  9 10  2  0
 10 11  1  0
 11 12  1  0
 12 13  1  0
 13 14  2  0
 13 15  1  0
 15 16  2  0
 16 17  1  0
 17 18  1  0
 17 19  1  0
 19 20  2  0
 20 21  1  0
 21 22  1  0
 21 23  1  0
 21 24  1  0
 11  7  2  0
 20 15  1  0
M  END
