
     RDKit          3D

 13 12  0  0  0  0  0  0  0  0999 V2000
    3.2346    0.8878    0.2541 C   0  0  0  0  0  0  0  0  0  0  0  0
    2.2993   -0.0426    0.0110 C   0  0  0  0  0  0  0  0  0  0  0  0
    1.3024   -0.4216    1.0609 C   0  0  0  0  0  0  0  0  0  0  0  0
    0.2762   -1.5122    0.7303 C   0  0  1  0  0  0  0  0  0  0  0  0
   -0.4582   -1.2304   -0.5637 C   0  0  0  0  0  0  0  0  0  0  0  0
   -1.4816   -0.3726   -0.7649 C   0  0  0  0  0  0  0  0  0  0  0  0
   -2.0939   -0.2619   -2.1413 C   0  0  0  0  0  0  0  0  0  0  0  0
   -2.0172    0.4755    0.2951 C   0  0  0  0  0  0  0  0  0  0  0  0
   -3.0536    1.3229    0.1852 C   0  0  0  0  0  0  0  0  0  0  0  0
   -3.5485    2.1720    1.3128 C   0  0  0  0  0  0  0  0  0  0  0  0
    0.9576   -2.8806    0.7125 C   0  0  0  0  0  0  0  0  0  0  0  0
    1.3279    0.1069    2.1736 O   0  0  0  0  0  0  0  0  0  0  0  0
    4.2589    1.3203   -0.7418 C   0  0  0  0  0  0  0  0  0  0  0  0
  1  2  2  0
  2  3  1  0
  3  4  1  0
  4  5  1  0
  5  6  2  0
  6  7  1  0
  6  8  1  0
  8  9  2  0
  9 10  1  0
  4 11  1  6
  3 12  2  0
  1 13  1  0
M  END
