
     RDKit          3D

 21 22  0  0  0  0  0  0  0  0999 V2000
    3.7460   -2.0889   -0.1744 C   0  0  0  0  0  0  0  0  0  0  0  0
    4.1816   -0.6524   -0.3940 C   0  0  0  0  0  0  0  0  0  0  0  0
    3.1757    0.2479    0.0967 O   0  0  0  0  0  0  0  0  0  0  0  0
    2.1753    0.5630   -0.7711 C   0  0  0  0  0  0  0  0  0  0  0  0
    2.0833    0.1275   -1.9133 O   0  0  0  0  0  0  0  0  0  0  0  0
    1.1337    1.4736   -0.1291 C   0  0  1  0  0  0  0  0  0  0  0  0
    1.7110    2.4674    0.8689 C   0  0  0  0  0  0  0  0  0  0  0  0
    0.4339    2.2074   -1.1307 O   0  0  0  0  0  0  0  0  0  0  0  0
   -0.8181    1.6857   -1.2749 C   0  0  0  0  0  0  0  0  0  0  0  0
   -1.5554    2.0951   -2.1575 O   0  0  0  0  0  0  0  0  0  0  0  0
   -1.0629    0.7406   -0.3204 N   0  0  0  0  0  0  0  0  0  0  0  0
   -2.2889    0.0206   -0.1442 C   0  0  0  0  0  0  0  0  0  0  0  0
   -3.4526    0.3500   -0.8613 C   0  0  0  0  0  0  0  0  0  0  0  0
   -4.6458   -0.3621   -0.6834 C   0  0  0  0  0  0  0  0  0  0  0  0
   -6.0474    0.0868   -1.5776 Cl  0  0  0  0  0  0  0  0  0  0  0  0
   -4.7168   -1.4230    0.2069 C   0  0  0  0  0  0  0  0  0  0  0  0
   -3.5789   -1.7678    0.9202 C   0  0  0  0  0  0  0  0  0  0  0  0
   -3.6386   -3.0879    2.0243 Cl  0  0  0  0  0  0  0  0  0  0  0  0
   -2.3820   -1.0608    0.7504 C   0  0  0  0  0  0  0  0  0  0  0  0
    0.0458    0.6352    0.4780 C   0  0  0  0  0  0  0  0  0  0  0  0
    0.1881    0.0054    1.5183 O   0  0  0  0  0  0  0  0  0  0  0  0
  1  2  1  0
  2  3  1  0
  3  4  1  0
  4  5  2  0
  4  6  1  0
  6  7  1  1
  6  8  1  0
  8  9  1  0
  9 10  2  0
  9 11  1  0
 11 12  1  0
 12 13  2  0
 13 14  1  0
 14 15  1  0
 14 16  2  0
 16 17  1  0
 17 18  1  0
 17 19  2  0
 11 20  1  0
 20 21  2  0
 20  6  1  0
 19 12  1  0
M  END
