
     RDKit          3D

 24 26  0  0  0  0  0  0  0  0999 V2000
    6.3043   -0.4797    0.3906 C   0  0  0  0  0  0  0  0  0  0  0  0
    5.3213   -0.8605   -0.6817 C   0  0  0  0  0  0  0  0  0  0  0  0
    5.9351   -1.1650   -2.0209 C   0  0  0  0  0  0  0  0  0  0  0  0
    3.9871   -0.9294   -0.4925 C   0  0  0  0  0  0  0  0  0  0  0  0
    3.2542   -0.6657    0.7523 C   0  0  2  0  0  0  0  0  0  0  0  0
    1.8347   -0.1449    0.7753 C   0  0  2  0  0  0  0  0  0  0  0  0
    1.0049    0.1335   -0.4257 C   0  0  0  0  0  0  0  0  0  0  0  0
    1.4489    0.4003   -1.5321 O   0  0  0  0  0  0  0  0  0  0  0  0
   -0.3171    0.0574   -0.1205 O   0  0  0  0  0  0  0  0  0  0  0  0
   -1.1561    0.3240   -1.2423 C   0  0  0  0  0  0  0  0  0  0  0  0
   -2.5201    0.1659   -0.8185 N   0  0  0  0  0  0  0  0  0  0  0  0
   -3.2780    1.1576   -0.2844 C   0  0  0  0  0  0  0  0  0  0  0  0
   -2.9909    2.3249   -0.0946 O   0  0  0  0  0  0  0  0  0  0  0  0
   -4.5748    0.5586    0.0389 C   0  0  0  0  0  0  0  0  0  0  0  0
   -4.5279   -0.7332   -0.2963 C   0  0  0  0  0  0  0  0  0  0  0  0
   -5.6454   -1.6947   -0.1455 C   0  0  0  0  0  0  0  0  0  0  0  0
   -6.9626   -0.9533    0.1471 C   0  0  0  0  0  0  0  0  0  0  0  0
   -6.7766    0.2077    1.1387 C   0  0  0  0  0  0  0  0  0  0  0  0
   -5.7406    1.2381    0.6518 C   0  0  0  0  0  0  0  0  0  0  0  0
   -3.2003   -1.0081   -0.8515 C   0  0  0  0  0  0  0  0  0  0  0  0
   -2.8322   -2.0963   -1.2531 O   0  0  0  0  0  0  0  0  0  0  0  0
    2.9794    0.7607    1.2104 C   0  0  0  0  0  0  0  0  0  0  0  0
    3.1033    1.0466    2.6890 C   0  0  0  0  0  0  0  0  0  0  0  0
    3.3856    1.9375    0.3526 C   0  0  0  0  0  0  0  0  0  0  0  0
  1  2  1  0
  2  3  1  0
  2  4  2  3
  5  4  1  6
  5  6  1  0
  6  7  1  6
  7  8  2  0
  7  9  1  0
  9 10  1  0
 10 11  1  0
 11 12  1  0
 12 13  2  0
 12 14  1  0
 14 15  2  0
 15 16  1  0
 16 17  1  0
 17 18  1  0
 18 19  1  0
 15 20  1  0
 20 21  2  0
  6 22  1  0
 22 23  1  0
 22 24  1  0
 22  5  1  0
 20 11  1  0
 19 14  1  0
M  END
