
     RDKit          3D

 15 16  0  0  0  0  0  0  0  0999 V2000
   -2.1760    0.8591   -3.2021 C   0  0  0  0  0  0  0  0  0  0  0  0
   -2.1188    1.4910   -1.9400 O   0  0  0  0  0  0  0  0  0  0  0  0
   -1.8528    0.5300   -0.6692 P   0  0  0  0  0  5  0  0  0  0  0  0
   -2.7774   -0.6459   -0.5966 O   0  0  0  0  0  0  0  0  0  0  0  0
   -1.9316    1.5611    0.5681 O   0  0  0  0  0  0  0  0  0  0  0  0
   -3.2260    1.9431    0.9827 C   0  0  0  0  0  0  0  0  0  0  0  0
   -0.2783    0.1891   -0.8008 O   0  0  0  0  0  0  0  0  0  0  0  0
    0.4303   -0.3853    0.0929 C   0  0  0  0  0  0  0  0  0  0  0  0
    0.2665   -1.0576    1.2929 C   0  0  0  0  0  0  0  0  0  0  0  0
   -1.1182   -1.3688    2.3497 Cl  0  0  0  0  0  0  0  0  0  0  0  0
    1.7232   -0.7834    1.5731 C   0  0  1  0  0  0  0  0  0  0  0  0
    2.8687   -1.5870    2.0078 C   0  0  0  0  0  0  0  0  0  0  0  0
    3.8316   -1.3439    1.0946 C   0  0  0  0  0  0  0  0  0  0  0  0
    3.2553   -0.5710   -0.0969 C   0  0  0  0  0  0  0  0  0  0  0  0
    1.8084   -1.0210    0.0157 C   0  0  2  0  0  0  0  0  0  0  0  0
  1  2  1  0
  2  3  1  0
  3  4  2  0
  3  5  1  0
  5  6  1  0
  3  7  1  0
  7  8  1  0
  8  9  2  0
  9 10  1  0
  9 11  1  0
 11 12  1  1
 12 13  2  0
 13 14  1  0
 15 14  1  6
 15  8  1  0
 15 11  1  0
M  END
