
     RDKit          3D

 10 11  0  0  0  0  0  0  0  0999 V2000
   -2.2357    0.1168   -0.3844 C   0  0  0  0  0  0  0  0  0  0  0  0
   -0.8428    0.0794    0.2709 C   0  0  0  0  0  0  0  0  0  0  0  0
   -0.0953   -1.2501   -0.0815 C   0  0  2  0  0  0  0  0  0  0  0  0
    1.2301   -1.3997    0.6996 C   0  0  0  0  0  0  0  0  0  0  0  0
    2.1163   -0.2957    0.0937 C   0  0  0  0  0  0  0  0  0  0  0  0
    1.2322    0.2789   -1.0257 C   0  0  1  0  0  0  0  0  0  0  0  0
    0.4615   -0.9573   -1.4840 C   0  0  0  0  0  0  0  0  0  0  0  0
    0.1168    1.0772   -0.3737 C   0  0  0  0  0  0  0  0  0  0  0  0
    0.0003    2.4103   -0.4070 C   0  0  0  0  0  0  0  0  0  0  0  0
   -1.0066    0.3056    1.7802 C   0  0  0  0  0  0  0  0  0  0  0  0
  1  2  1  0
  2  3  1  0
  3  4  1  1
  4  5  1  0
  6  5  1  1
  6  7  1  0
  6  8  1  0
  8  9  2  0
  2 10  1  0
  8  2  1  0
  7  3  1  0
M  END
