
     RDKit          3D

 11 11  0  0  0  0  0  0  0  0999 V2000
    3.7964    0.3034    0.8931 C   0  0  0  0  0  0  0  0  0  0  0  0
    2.3353    0.1722    0.5742 C   0  0  0  0  0  0  0  0  0  0  0  0
    1.5146   -0.6146    1.2910 C   0  0  0  0  0  0  0  0  0  0  0  0
    0.0572   -0.8080    0.9799 C   0  0  0  0  0  0  0  0  0  0  0  0
   -0.3556   -0.2907   -0.4150 C   0  0  2  0  0  0  0  0  0  0  0  0
    0.3126    1.0745   -0.6728 C   0  0  0  0  0  0  0  0  0  0  0  0
    1.8405    0.9727   -0.6028 C   0  0  0  0  0  0  0  0  0  0  0  0
   -1.8972   -0.2817   -0.6429 C   0  0  0  0  0  0  0  0  0  0  0  0
   -2.5046   -1.6732   -0.4224 C   0  0  0  0  0  0  0  0  0  0  0  0
   -2.6543    0.7409    0.2131 C   0  0  0  0  0  0  0  0  0  0  0  0
   -2.1483    0.0322   -2.0215 O   0  0  0  0  0  0  0  0  0  0  0  0
  1  2  1  0
  2  3  2  0
  3  4  1  0
  4  5  1  0
  5  6  1  0
  6  7  1  0
  5  8  1  1
  8  9  1  0
  8 10  1  0
  8 11  1  0
  7  2  1  0
M  END
