
     RDKit          3D

 12 12  0  0  0  0  0  0  0  0999 V2000
   -1.6475   -0.1183   -0.0078 C   0  0  2  0  0  0  0  0  0  0  0  0
   -2.1053   -0.8619   -1.1549 O   0  0  0  0  0  0  0  0  0  0  0  0
   -0.1576    0.1345   -0.1530 C   0  0  0  0  0  0  0  0  0  0  0  0
    0.7476   -0.9341   -0.2572 C   0  0  0  0  0  0  0  0  0  0  0  0
    2.1151   -0.6950   -0.3991 C   0  0  0  0  0  0  0  0  0  0  0  0
    2.5941    0.6122   -0.4411 C   0  0  0  0  0  0  0  0  0  0  0  0
    1.7069    1.6819   -0.3420 C   0  0  0  0  0  0  0  0  0  0  0  0
    0.3382    1.4463   -0.1998 C   0  0  0  0  0  0  0  0  0  0  0  0
   -2.0328   -0.7809    1.3340 C   0  0  0  0  0  0  0  0  0  0  0  0
   -1.5115   -2.0214    1.4733 F   0  0  0  0  0  0  0  0  0  0  0  0
   -1.6111   -0.0388    2.3874 F   0  0  0  0  0  0  0  0  0  0  0  0
   -3.3791   -0.8915    1.4527 F   0  0  0  0  0  0  0  0  0  0  0  0
  1  2  1  6
  1  3  1  0
  3  4  2  0
  4  5  1  0
  5  6  2  0
  6  7  1  0
  7  8  2  0
  1  9  1  0
  9 10  1  0
  9 11  1  0
  9 12  1  0
  8  3  1  0
M  END
