
     RDKit          3D

 26 27  0  0  0  0  0  0  0  0999 V2000
    3.7819    3.7672    0.0860 N   0  0  0  0  0  0  0  0  0  0  0  0
    3.0523    2.8680    0.1733 C   0  0  0  0  0  0  0  0  0  0  0  0
    2.2255    1.7037    0.2897 C   0  0  0  0  0  0  0  0  0  0  0  0
    0.8947    1.8291    0.2460 N   0  0  0  0  0  0  0  0  0  0  0  0
    0.4275    0.5578    0.3834 N   0  0  0  0  0  0  0  0  0  0  0  0
   -0.9586    0.3044    0.3044 C   0  0  0  0  0  0  0  0  0  0  0  0
   -1.8424    0.9758    1.1637 C   0  0  0  0  0  0  0  0  0  0  0  0
   -1.3233    2.0315    2.4336 Cl  0  0  0  0  0  0  0  0  0  0  0  0
   -3.2199    0.7350    1.0800 C   0  0  0  0  0  0  0  0  0  0  0  0
   -3.7367   -0.1734    0.1463 C   0  0  0  0  0  0  0  0  0  0  0  0
   -5.2243   -0.4110    0.0439 C   0  0  0  0  0  0  0  0  0  0  0  0
   -5.8195    0.4338   -0.8390 F   0  0  0  0  0  0  0  0  0  0  0  0
   -5.8708   -0.2403    1.2289 F   0  0  0  0  0  0  0  0  0  0  0  0
   -5.5297   -1.6706   -0.3707 F   0  0  0  0  0  0  0  0  0  0  0  0
   -2.8482   -0.8236   -0.7214 C   0  0  0  0  0  0  0  0  0  0  0  0
   -1.4688   -0.5883   -0.6502 C   0  0  0  0  0  0  0  0  0  0  0  0
   -0.5010   -1.3464   -1.8678 Cl  0  0  0  0  0  0  0  0  0  0  0  0
    1.4634   -0.3577    0.5805 C   0  0  0  0  0  0  0  0  0  0  0  0
    1.2940   -1.6770    0.8462 N   0  0  0  0  0  0  0  0  0  0  0  0
    2.6236    0.3741    0.4795 C   0  0  0  0  0  0  0  0  0  0  0  0
    4.2971   -0.2315    0.6257 S   0  0  0  0  0  4  0  0  0  0  0  0
    4.2112   -1.5727    1.3055 O   0  0  0  0  0  0  0  0  0  0  0  0
    4.6058   -0.4501   -1.1506 C   0  0  0  0  0  0  0  0  0  0  0  0
    4.4828    0.7291   -1.8151 F   0  0  0  0  0  0  0  0  0  0  0  0
    5.8632   -0.9017   -1.3886 F   0  0  0  0  0  0  0  0  0  0  0  0
    3.7484   -1.3227   -1.7347 F   0  0  0  0  0  0  0  0  0  0  0  0
  1  2  3  0
  2  3  1  0
  3  4  2  0
  4  5  1  0
  5  6  1  0
  6  7  2  0
  7  8  1  0
  7  9  1  0
  9 10  2  0
 10 11  1  0
 11 12  1  0
 11 13  1  0
 11 14  1  0
 10 15  1  0
 15 16  2  0
 16 17  1  0
  5 18  1  0
 18 19  1  0
 18 20  2  0
 20 21  1  0
 21 22  2  0
 21 23  1  6
 23 24  1  0
 23 25  1  0
 23 26  1  0
 20  3  1  0
 16  6  1  0
M  END
