
     RDKit          3D

 13 12  0  0  0  0  0  0  0  0999 V2000
    3.4667    0.6438    0.5403 C   0  0  0  0  0  0  0  0  0  0  0  0
    2.2380    0.4160    0.0534 C   0  0  0  0  0  0  0  0  0  0  0  0
    1.9665   -0.7546   -0.8393 C   0  0  0  0  0  0  0  0  0  0  0  0
    0.5422   -0.8706   -1.3934 C   0  0  2  0  0  0  0  0  0  0  0  0
   -0.3290   -1.4803   -0.3183 C   0  0  0  0  0  0  0  0  0  0  0  0
   -1.3926   -0.9533    0.3248 C   0  0  0  0  0  0  0  0  0  0  0  0
   -2.0814   -1.7766    1.3898 C   0  0  0  0  0  0  0  0  0  0  0  0
   -1.9247    0.3747    0.0394 C   0  0  0  0  0  0  0  0  0  0  0  0
   -2.9293    0.9823    0.6922 C   0  0  0  0  0  0  0  0  0  0  0  0
   -3.4374    2.3463    0.3477 C   0  0  0  0  0  0  0  0  0  0  0  0
    0.5129   -1.7319   -2.6553 C   0  0  0  0  0  0  0  0  0  0  0  0
    2.8466   -1.5783   -1.0852 O   0  0  0  0  0  0  0  0  0  0  0  0
    3.8079    1.7861    1.4386 C   0  0  0  0  0  0  0  0  0  0  0  0
  1  2  2  0
  2  3  1  0
  3  4  1  0
  4  5  1  0
  5  6  2  0
  6  7  1  0
  6  8  1  0
  8  9  2  0
  9 10  1  0
  4 11  1  6
  3 12  2  0
  1 13  1  0
M  END
