
     RDKit          3D

 10  9  0  0  0  0  0  0  0  0999 V2000
    3.9964   -0.3428   -1.4679 C   0  0  0  0  0  0  0  0  0  0  0  0
    2.5927    0.2403   -1.4180 C   0  0  0  0  0  0  0  0  0  0  0  0
    1.5980   -0.7490   -0.8105 C   0  0  0  0  0  0  0  0  0  0  0  0
    0.2114   -0.1744   -0.7745 C   0  0  0  0  0  0  0  0  0  0  0  0
   -0.4784    0.0450    0.3549 C   0  0  0  0  0  0  0  0  0  0  0  0
   -1.8562    0.6161    0.3100 C   0  0  0  0  0  0  0  0  0  0  0  0
   -2.3889    0.9467   -0.7505 O   0  0  0  0  0  0  0  0  0  0  0  0
   -2.5900    0.7843    1.6452 C   0  0  2  0  0  0  0  0  0  0  0  0
   -3.0593   -0.5581    2.1798 C   0  0  0  0  0  0  0  0  0  0  0  0
   -3.7317    1.6242    1.4839 O   0  0  0  0  0  0  0  0  0  0  0  0
  1  2  1  0
  2  3  1  0
  3  4  1  0
  4  5  2  0
  5  6  1  0
  6  7  2  0
  6  8  1  0
  8  9  1  6
  8 10  1  0
M  END
