
     RDKit          3D

 19 20  0  0  0  0  0  0  0  0999 V2000
   -3.5517   -0.4618    2.5599 C   0  0  0  0  0  0  0  0  0  0  0  0
   -4.0044    0.0466    1.2026 C   0  0  0  0  0  0  0  0  0  0  0  0
   -2.9008    0.5992    0.4924 O   0  0  0  0  0  0  0  0  0  0  0  0
   -2.3956   -0.2647   -0.5329 C   0  0  2  0  0  0  0  0  0  0  0  0
   -1.8984   -1.5096    0.0198 O   0  0  0  0  0  0  0  0  0  0  0  0
   -0.5481   -1.3070    0.1298 C   0  0  0  0  0  0  0  0  0  0  0  0
    0.2972   -2.1202    0.8537 C   0  0  0  0  0  0  0  0  0  0  0  0
    1.6556   -1.7954    0.8724 C   0  0  0  0  0  0  0  0  0  0  0  0
    2.1411   -0.6758    0.1680 C   0  0  0  0  0  0  0  0  0  0  0  0
    3.4959   -0.4749    0.2647 O   0  0  0  0  0  0  0  0  0  0  0  0
    4.2041    0.9199   -0.1959 S   0  0  0  0  0  6  0  0  0  0  0  0
    5.8324    0.5294    0.3897 C   0  0  0  0  0  0  0  0  0  0  0  0
    4.2540    0.9851   -1.6425 O   0  0  0  0  0  0  0  0  0  0  0  0
    3.6916    2.0151    0.6023 O   0  0  0  0  0  0  0  0  0  0  0  0
    1.2663    0.1177   -0.5796 C   0  0  0  0  0  0  0  0  0  0  0  0
   -0.0828   -0.2118   -0.5833 C   0  0  0  0  0  0  0  0  0  0  0  0
   -1.2287    0.4135   -1.3149 C   0  0  0  0  0  0  0  0  0  0  0  0
   -1.2416    1.9420   -1.2526 C   0  0  0  0  0  0  0  0  0  0  0  0
   -1.2123   -0.0561   -2.7785 C   0  0  0  0  0  0  0  0  0  0  0  0
  1  2  1  0
  2  3  1  0
  4  3  1  1
  4  5  1  0
  5  6  1  0
  6  7  2  0
  7  8  1  0
  8  9  2  0
  9 10  1  0
 10 11  1  0
 11 12  1  0
 11 13  2  0
 11 14  2  0
  9 15  1  0
 15 16  2  0
 16 17  1  0
 17 18  1  0
 17 19  1  0
 17  4  1  0
 16  6  1  0
M  END
