
     RDKit          3D

  6  6  0  0  0  0  0  0  0  0999 V2000
   -0.0838    0.4638    0.6431 C   0  0  2  0  0  0  0  0  0  0  0  0
   -0.5515   -0.7136   -0.0942 C   0  0  0  0  0  0  0  0  0  0  0  0
    0.1024   -1.8717   -0.2443 C   0  0  0  0  0  0  0  0  0  0  0  0
   -2.1226   -0.5305   -0.8041 Cl  0  0  0  0  0  0  0  0  0  0  0  0
    0.4569    1.6415   -0.1320 C   0  0  0  0  0  0  0  0  0  0  0  0
    1.3037    0.8463    0.7032 O   0  0  0  0  0  0  0  0  0  0  0  0
  1  2  1  6
  2  3  2  0
  2  4  1  0
  1  5  1  0
  5  6  1  0
  6  1  1  0
M  END
