
     RDKit          3D

 10 10  0  0  0  0  0  0  0  0999 V2000
    3.6308   -0.2653    0.2208 C   0  0  0  0  0  0  0  0  0  0  0  0
    2.1355   -0.2102    0.0979 C   0  0  0  0  0  0  0  0  0  0  0  0
    1.4224   -1.2324   -0.4078 C   0  0  0  0  0  0  0  0  0  0  0  0
   -0.0713   -1.2025   -0.5830 C   0  0  0  0  0  0  0  0  0  0  0  0
   -0.6676    0.2148   -0.4588 C   0  0  2  0  0  0  0  0  0  0  0  0
   -0.0396    0.9491    0.7356 C   0  0  0  0  0  0  0  0  0  0  0  0
    1.4802    1.0637    0.5741 C   0  0  0  0  0  0  0  0  0  0  0  0
   -2.1916    0.2024   -0.4085 C   0  0  0  0  0  0  0  0  0  0  0  0
   -2.9198    0.6973   -1.4247 C   0  0  0  0  0  0  0  0  0  0  0  0
   -2.8672   -0.3695    0.8096 C   0  0  0  0  0  0  0  0  0  0  0  0
  1  2  1  0
  2  3  2  0
  3  4  1  0
  4  5  1  0
  5  6  1  0
  6  7  1  0
  5  8  1  1
  8  9  2  0
  8 10  1  0
  7  2  1  0
M  END
