
     RDKit          3D

 10 11  0  0  0  0  0  0  0  0999 V2000
    2.7870   -0.6009   -0.5747 C   0  0  0  0  0  0  0  0  0  0  0  0
    1.5504    0.0295   -0.0290 C   0  0  0  0  0  0  0  0  0  0  0  0
    1.3922    1.3446    0.2246 C   0  0  0  0  0  0  0  0  0  0  0  0
    0.0789    1.8791    0.7603 C   0  0  0  0  0  0  0  0  0  0  0  0
   -0.9125    0.7089    0.9376 C   0  0  2  0  0  0  0  0  0  0  0  0
   -0.2157   -0.4656    1.7019 C   0  0  0  0  0  0  0  0  0  0  0  0
    0.3626   -0.8446    0.2893 C   0  0  1  0  0  0  0  0  0  0  0  0
   -1.0165   -0.2952   -0.2936 C   0  0  0  0  0  0  0  0  0  0  0  0
   -1.0140    0.3134   -1.7021 C   0  0  0  0  0  0  0  0  0  0  0  0
   -2.1896   -1.2934   -0.2261 C   0  0  0  0  0  0  0  0  0  0  0  0
  1  2  1  0
  2  3  2  0
  3  4  1  0
  5  4  1  6
  5  6  1  0
  7  6  1  1
  7  8  1  0
  8  9  1  0
  8 10  1  0
  7  2  1  0
  8  5  1  0
M  END
