
     RDKit          3D

 10 10  0  0  0  0  0  0  0  0999 V2000
   -2.5016    0.4063    0.2380 C   0  0  0  0  0  0  0  0  0  0  0  0
   -1.3814   -0.6139    0.4174 C   0  0  2  0  0  0  0  0  0  0  0  0
    0.0243   -0.1408    0.1087 C   0  0  0  0  0  0  0  0  0  0  0  0
    1.0916   -1.0378    0.3057 C   0  0  0  0  0  0  0  0  0  0  0  0
    2.4074   -0.6528    0.0487 C   0  0  0  0  0  0  0  0  0  0  0  0
    2.6891    0.6307   -0.4083 C   0  0  0  0  0  0  0  0  0  0  0  0
    1.6458    1.5315   -0.6122 C   0  0  0  0  0  0  0  0  0  0  0  0
    0.3247    1.1489   -0.3562 C   0  0  0  0  0  0  0  0  0  0  0  0
    3.6913   -1.7707    0.3013 Cl  0  0  0  0  0  0  0  0  0  0  0  0
   -1.6561   -1.7354   -0.4217 O   0  0  0  0  0  0  0  0  0  0  0  0
  2  1  1  6
  2  3  1  0
  3  4  2  0
  4  5  1  0
  5  6  2  0
  6  7  1  0
  7  8  2  0
  5  9  1  0
  2 10  1  0
  8  3  1  0
M  END
