
     RDKit          3D

 26 27  0  0  0  0  0  0  0  0999 V2000
   -3.2129   -2.7037   -3.3597 N   0  0  0  0  0  0  0  0  0  0  0  0
   -2.7164   -1.9954   -2.5835 C   0  0  0  0  0  0  0  0  0  0  0  0
   -2.0663   -1.1314   -1.6377 C   0  0  0  0  0  0  0  0  0  0  0  0
   -0.7283   -1.0994   -1.6251 N   0  0  0  0  0  0  0  0  0  0  0  0
   -0.4092   -0.2048   -0.6595 N   0  0  0  0  0  0  0  0  0  0  0  0
    0.9507    0.0323   -0.3546 C   0  0  0  0  0  0  0  0  0  0  0  0
    1.4397   -0.1547    0.9473 C   0  0  0  0  0  0  0  0  0  0  0  0
    0.4784   -0.7511    2.2569 Cl  0  0  0  0  0  0  0  0  0  0  0  0
    2.7965    0.0588    1.2251 C   0  0  0  0  0  0  0  0  0  0  0  0
    3.6858    0.4549    0.2167 C   0  0  0  0  0  0  0  0  0  0  0  0
    5.1515    0.6555    0.5195 C   0  0  0  0  0  0  0  0  0  0  0  0
    5.8601   -0.4995    0.4161 F   0  0  0  0  0  0  0  0  0  0  0  0
    5.3673    1.1219    1.7798 F   0  0  0  0  0  0  0  0  0  0  0  0
    5.7498    1.5466   -0.3164 F   0  0  0  0  0  0  0  0  0  0  0  0
    3.1941    0.6200   -1.0847 C   0  0  0  0  0  0  0  0  0  0  0  0
    1.8388    0.4129   -1.3742 C   0  0  0  0  0  0  0  0  0  0  0  0
    1.3408    0.7678   -2.9940 Cl  0  0  0  0  0  0  0  0  0  0  0  0
   -1.5483    0.3604   -0.0712 C   0  0  0  0  0  0  0  0  0  0  0  0
   -1.5072    1.3541    0.8578 N   0  0  0  0  0  0  0  0  0  0  0  0
   -2.6180   -0.2572   -0.6864 C   0  0  0  0  0  0  0  0  0  0  0  0
   -4.3500    0.0657   -0.3999 S   0  0  0  0  0  4  0  0  0  0  0  0
   -5.1160   -0.9546   -1.1911 O   0  0  0  0  0  0  0  0  0  0  0  0
   -4.4044   -0.3397    1.3641 C   0  0  0  0  0  0  0  0  0  0  0  0
   -3.7830   -1.5092    1.6589 F   0  0  0  0  0  0  0  0  0  0  0  0
   -5.6785   -0.4359    1.8228 F   0  0  0  0  0  0  0  0  0  0  0  0
   -3.8052    0.6286    2.1128 F   0  0  0  0  0  0  0  0  0  0  0  0
  1  2  3  0
  2  3  1  0
  3  4  2  0
  4  5  1  0
  5  6  1  0
  6  7  2  0
  7  8  1  0
  7  9  1  0
  9 10  2  0
 10 11  1  0
 11 12  1  0
 11 13  1  0
 11 14  1  0
 10 15  1  0
 15 16  2  0
 16 17  1  0
  5 18  1  0
 18 19  1  0
 18 20  2  0
 20 21  1  0
 21 22  2  0
 21 23  1  1
 23 24  1  0
 23 25  1  0
 23 26  1  0
 20  3  1  0
 16  6  1  0
M  END
