
     RDKit          3D

 26 28  0  0  0  0  0  0  0  0999 V2000
   -4.8262   -0.0427    1.6222 C   0  0  0  0  0  0  0  0  0  0  0  0
   -4.7352   -0.7403    0.2831 C   0  0  0  0  0  0  0  0  0  0  0  0
   -5.3555   -2.1214    0.3058 C   0  0  0  0  0  0  0  0  0  0  0  0
   -3.5014   -0.5570   -0.5916 C   0  0  2  0  0  0  0  0  0  0  0  0
   -2.3230    0.2516   -0.1759 C   0  0  0  0  0  0  0  0  0  0  0  0
   -2.3948    1.3434    0.3717 O   0  0  0  0  0  0  0  0  0  0  0  0
   -1.1691   -0.3911   -0.4914 O   0  0  0  0  0  0  0  0  0  0  0  0
    0.0102    0.3411   -0.1386 C   0  0  0  0  0  0  0  0  0  0  0  0
    1.2283   -0.4787   -0.4902 C   0  0  0  0  0  0  0  0  0  0  0  0
    1.3175   -1.1502   -1.7204 C   0  0  0  0  0  0  0  0  0  0  0  0
    2.4513   -1.8987   -2.0447 C   0  0  0  0  0  0  0  0  0  0  0  0
    3.5192   -1.9679   -1.1521 C   0  0  0  0  0  0  0  0  0  0  0  0
    3.4588   -1.2706    0.0527 C   0  0  0  0  0  0  0  0  0  0  0  0
    4.5314   -1.3864    0.9068 O   0  0  0  0  0  0  0  0  0  0  0  0
    5.0989   -0.2176    1.3675 C   0  0  0  0  0  0  0  0  0  0  0  0
    5.3286    0.8955    0.5530 C   0  0  0  0  0  0  0  0  0  0  0  0
    5.9419    2.0313    1.0859 C   0  0  0  0  0  0  0  0  0  0  0  0
    6.3353    2.0505    2.4252 C   0  0  0  0  0  0  0  0  0  0  0  0
    6.1256    0.9310    3.2316 C   0  0  0  0  0  0  0  0  0  0  0  0
    5.5142   -0.2064    2.7005 C   0  0  0  0  0  0  0  0  0  0  0  0
    2.3153   -0.5423    0.3946 C   0  0  0  0  0  0  0  0  0  0  0  0
   -4.8248    0.0381   -1.0249 C   0  0  2  0  0  0  0  0  0  0  0  0
   -5.0579    1.4906   -1.0408 C   0  0  0  0  0  0  0  0  0  0  0  0
   -4.5758    2.3863   -1.9164 C   0  0  0  0  0  0  0  0  0  0  0  0
   -3.5485    1.9270   -3.2275 Cl  0  0  0  0  0  0  0  0  0  0  0  0
   -4.9846    4.0585   -1.7695 Cl  0  0  0  0  0  0  0  0  0  0  0  0
  1  2  1  0
  2  3  1  0
  2  4  1  0
  4  5  1  1
  5  6  2  0
  5  7  1  0
  7  8  1  0
  8  9  1  0
  9 10  2  0
 10 11  1  0
 11 12  2  0
 12 13  1  0
 13 14  1  0
 14 15  1  0
 15 16  2  0
 16 17  1  0
 17 18  2  0
 18 19  1  0
 19 20  2  0
 13 21  2  0
  4 22  1  0
 22 23  1  1
 23 24  2  3
 24 25  1  0
 24 26  1  0
 22  2  1  0
 21  9  1  0
 20 15  1  0
M  END
