
     RDKit          3D

 24 26  0  0  0  0  0  0  0  0999 V2000
   -4.3576   -0.4830    3.2225 C   0  0  0  0  0  0  0  0  0  0  0  0
   -3.9222   -0.3727    1.7871 C   0  0  0  0  0  0  0  0  0  0  0  0
   -4.6677   -1.2608    0.8298 C   0  0  0  0  0  0  0  0  0  0  0  0
   -2.9367    0.4674    1.4162 C   0  0  0  0  0  0  0  0  0  0  0  0
   -2.4072    0.6680    0.0598 C   0  0  2  0  0  0  0  0  0  0  0  0
   -1.8441    2.0253   -0.3146 C   0  0  1  0  0  0  0  0  0  0  0  0
   -0.5978    2.1367   -1.1049 C   0  0  0  0  0  0  0  0  0  0  0  0
   -0.4870    2.9182   -2.0374 O   0  0  0  0  0  0  0  0  0  0  0  0
    0.3707    1.3128   -0.6366 O   0  0  0  0  0  0  0  0  0  0  0  0
    1.5874    1.4249   -1.3702 C   0  0  0  0  0  0  0  0  0  0  0  0
    2.5440    0.5392   -0.7674 N   0  0  0  0  0  0  0  0  0  0  0  0
    2.7140   -0.7602   -1.1180 C   0  0  0  0  0  0  0  0  0  0  0  0
    2.1533   -1.3991   -1.9881 O   0  0  0  0  0  0  0  0  0  0  0  0
    3.7438   -1.2976   -0.2260 C   0  0  0  0  0  0  0  0  0  0  0  0
    4.1118   -0.3256    0.6117 C   0  0  0  0  0  0  0  0  0  0  0  0
    5.1324   -0.4599    1.6763 C   0  0  0  0  0  0  0  0  0  0  0  0
    5.9436   -1.7544    1.4911 C   0  0  0  0  0  0  0  0  0  0  0  0
    5.0609   -2.9470    1.0846 C   0  0  0  0  0  0  0  0  0  0  0  0
    4.2725   -2.6815   -0.2105 C   0  0  0  0  0  0  0  0  0  0  0  0
    3.3474    0.8768    0.2733 C   0  0  0  0  0  0  0  0  0  0  0  0
    3.4546    1.9478    0.8418 O   0  0  0  0  0  0  0  0  0  0  0  0
   -3.1417    1.5398   -0.9459 C   0  0  0  0  0  0  0  0  0  0  0  0
   -4.4043    2.2726   -0.5577 C   0  0  0  0  0  0  0  0  0  0  0  0
   -3.1468    1.0670   -2.3805 C   0  0  0  0  0  0  0  0  0  0  0  0
  1  2  1  0
  2  3  1  0
  2  4  2  3
  5  4  1  1
  5  6  1  0
  6  7  1  6
  7  8  2  0
  7  9  1  0
  9 10  1  0
 10 11  1  0
 11 12  1  0
 12 13  2  0
 12 14  1  0
 14 15  2  0
 15 16  1  0
 16 17  1  0
 17 18  1  0
 18 19  1  0
 15 20  1  0
 20 21  2  0
  6 22  1  0
 22 23  1  0
 22 24  1  0
 22  5  1  0
 20 11  1  0
 19 14  1  0
M  END
