
     RDKit          3D

 26 28  0  0  0  0  0  0  0  0999 V2000
   -5.0520   -2.8277    0.3137 C   0  0  0  0  0  0  0  0  0  0  0  0
   -4.4400   -1.7043   -0.4890 C   0  0  0  0  0  0  0  0  0  0  0  0
   -4.6444   -1.8598   -1.9779 C   0  0  0  0  0  0  0  0  0  0  0  0
   -4.3899   -0.2839    0.0544 C   0  0  1  0  0  0  0  0  0  0  0  0
   -5.0026    0.0536    1.3495 C   0  0  0  0  0  0  0  0  0  0  0  0
   -4.5438    0.9118    2.2738 C   0  0  0  0  0  0  0  0  0  0  0  0
   -3.0728    1.7902    2.0682 Cl  0  0  0  0  0  0  0  0  0  0  0  0
   -5.4344    1.1789    3.7306 Cl  0  0  0  0  0  0  0  0  0  0  0  0
   -3.1306   -1.1276    0.0298 C   0  0  2  0  0  0  0  0  0  0  0  0
   -2.0099   -0.8155   -0.8889 C   0  0  0  0  0  0  0  0  0  0  0  0
   -1.3486   -1.6988   -1.4126 O   0  0  0  0  0  0  0  0  0  0  0  0
   -1.8259    0.5211   -1.0202 O   0  0  0  0  0  0  0  0  0  0  0  0
   -0.6859    0.9115   -1.7905 C   0  0  0  0  0  0  0  0  0  0  0  0
    0.4734    1.1709   -0.8648 C   0  0  0  0  0  0  0  0  0  0  0  0
    0.4927    2.3160   -0.0548 C   0  0  0  0  0  0  0  0  0  0  0  0
    1.5492    2.5420    0.8293 C   0  0  0  0  0  0  0  0  0  0  0  0
    2.5983    1.6273    0.9123 C   0  0  0  0  0  0  0  0  0  0  0  0
    2.5928    0.4906    0.1011 C   0  0  0  0  0  0  0  0  0  0  0  0
    3.5731   -0.4740    0.1650 O   0  0  0  0  0  0  0  0  0  0  0  0
    4.8817   -0.0474    0.1623 C   0  0  0  0  0  0  0  0  0  0  0  0
    5.3718    0.8776   -0.7632 C   0  0  0  0  0  0  0  0  0  0  0  0
    6.7194    1.2392   -0.7338 C   0  0  0  0  0  0  0  0  0  0  0  0
    7.5762    0.6659    0.2069 C   0  0  0  0  0  0  0  0  0  0  0  0
    7.0894   -0.2752    1.1150 C   0  0  0  0  0  0  0  0  0  0  0  0
    5.7425   -0.6381    1.0878 C   0  0  0  0  0  0  0  0  0  0  0  0
    1.5258    0.2504   -0.7663 C   0  0  0  0  0  0  0  0  0  0  0  0
  1  2  1  0
  2  3  1  0
  2  4  1  0
  4  5  1  1
  5  6  2  3
  6  7  1  0
  6  8  1  0
  4  9  1  0
  9 10  1  6
 10 11  2  0
 10 12  1  0
 12 13  1  0
 13 14  1  0
 14 15  2  0
 15 16  1  0
 16 17  2  0
 17 18  1  0
 18 19  1  0
 19 20  1  0
 20 21  2  0
 21 22  1  0
 22 23  2  0
 23 24  1  0
 24 25  2  0
 18 26  2  0
  9  2  1  0
 26 14  1  0
 25 20  1  0
M  END
