
     RDKit          3D

 20 21  0  0  0  0  0  0  0  0999 V2000
   -2.9450   -3.5967   -1.4191 C   0  0  0  0  0  0  0  0  0  0  0  0
   -1.6853   -2.9289   -0.9069 C   0  0  0  0  0  0  0  0  0  0  0  0
   -2.0109   -1.6159   -0.4813 O   0  0  0  0  0  0  0  0  0  0  0  0
   -1.0279   -0.8554    0.5766 P   0  0  1  0  0  5  0  0  0  0  0  0
   -1.1135   -1.6597    2.3605 S   0  0  0  0  0  0  0  0  0  0  0  0
    0.3946   -1.0585   -0.1815 O   0  0  0  0  0  0  0  0  0  0  0  0
    1.5944   -0.5064    0.1662 C   0  0  0  0  0  0  0  0  0  0  0  0
    2.6738   -0.8683   -0.6430 C   0  0  0  0  0  0  0  0  0  0  0  0
    3.9501   -0.3604   -0.3897 C   0  0  0  0  0  0  0  0  0  0  0  0
    4.1521    0.5170    0.6786 C   0  0  0  0  0  0  0  0  0  0  0  0
    5.4599    1.0420    0.9425 C   0  0  0  0  0  0  0  0  0  0  0  0
    6.5190    1.4677    1.1516 N   0  0  0  0  0  0  0  0  0  0  0  0
    3.0701    0.8794    1.4873 C   0  0  0  0  0  0  0  0  0  0  0  0
    1.7922    0.3683    1.2317 C   0  0  0  0  0  0  0  0  0  0  0  0
   -1.4603    0.8624    0.2920 C   0  0  0  0  0  0  0  0  0  0  0  0
   -2.0093    1.6571    1.3105 C   0  0  0  0  0  0  0  0  0  0  0  0
   -2.3310    2.9954    1.0744 C   0  0  0  0  0  0  0  0  0  0  0  0
   -2.1120    3.5562   -0.1820 C   0  0  0  0  0  0  0  0  0  0  0  0
   -1.5752    2.7798   -1.2060 C   0  0  0  0  0  0  0  0  0  0  0  0
   -1.2546    1.4419   -0.9715 C   0  0  0  0  0  0  0  0  0  0  0  0
  1  2  1  0
  2  3  1  0
  4  3  1  6
  4  5  2  0
  4  6  1  0
  6  7  1  0
  7  8  2  0
  8  9  1  0
  9 10  2  0
 10 11  1  0
 11 12  3  0
 10 13  1  0
 13 14  2  0
  4 15  1  0
 15 16  2  0
 16 17  1  0
 17 18  2  0
 18 19  1  0
 19 20  2  0
 14  7  1  0
 20 15  1  0
M  END
