
     RDKit          3D

 10  9  0  0  0  0  0  0  0  0999 V2000
   -2.9437    1.1610    0.1312 C   0  0  0  0  0  0  0  0  0  0  0  0
   -2.2069   -0.0115    0.7591 C   0  0  0  0  0  0  0  0  0  0  0  0
   -1.7382   -1.0557   -0.2571 C   0  0  0  0  0  0  0  0  0  0  0  0
   -0.7867   -0.5482   -1.3483 C   0  0  0  0  0  0  0  0  0  0  0  0
    0.5000    0.0951   -0.8326 C   0  0  0  0  0  0  0  0  0  0  0  0
    1.4106   -0.8774   -0.0988 C   0  0  0  0  0  0  0  0  0  0  0  0
    1.3816   -2.0912   -0.3125 O   0  0  0  0  0  0  0  0  0  0  0  0
    2.3973   -0.2895    0.9143 C   0  0  1  0  0  0  0  0  0  0  0  0
    3.3336    0.7137    0.2626 C   0  0  0  0  0  0  0  0  0  0  0  0
    1.7114    0.3431    1.9859 O   0  0  0  0  0  0  0  0  0  0  0  0
  1  2  1  0
  2  3  1  0
  3  4  1  0
  4  5  1  0
  5  6  1  0
  6  7  2  0
  6  8  1  0
  8  9  1  6
  8 10  1  0
M  END
