
     RDKit          3D

 25 27  0  0  0  0  0  0  0  0999 V2000
   -5.3280    0.5671   -0.1553 C   0  0  0  0  0  0  0  0  0  0  0  0
   -3.7811    0.4957   -0.1868 C   0  0  0  0  0  0  0  0  0  0  0  0
   -3.3636   -0.1119   -1.5384 C   0  0  0  0  0  0  0  0  0  0  0  0
   -3.2630    1.9439   -0.1030 C   0  0  0  0  0  0  0  0  0  0  0  0
   -3.2802   -0.3846    1.0107 C   0  0  1  0  0  0  0  0  0  0  0  0
   -4.0395   -1.6154    0.9863 O   0  0  0  0  0  0  0  0  0  0  0  0
   -1.7559   -0.7190    1.0551 C   0  0  1  0  0  0  0  0  0  0  0  0
   -0.9506    0.4523    0.9005 O   0  0  0  0  0  0  0  0  0  0  0  0
    0.2987    0.3207    0.3580 C   0  0  0  0  0  0  0  0  0  0  0  0
    1.0013   -0.8687    0.1764 C   0  0  0  0  0  0  0  0  0  0  0  0
    2.2859   -0.8476   -0.3838 C   0  0  0  0  0  0  0  0  0  0  0  0
    2.8982    0.3561   -0.7661 C   0  0  0  0  0  0  0  0  0  0  0  0
    4.2477    0.3698   -1.3534 C   0  0  0  0  0  0  0  0  0  0  0  0
    4.5568   -0.4169   -2.4758 C   0  0  0  0  0  0  0  0  0  0  0  0
    5.8379   -0.4043   -3.0345 C   0  0  0  0  0  0  0  0  0  0  0  0
    6.8331    0.3954   -2.4786 C   0  0  0  0  0  0  0  0  0  0  0  0
    6.5484    1.1823   -1.3657 C   0  0  0  0  0  0  0  0  0  0  0  0
    5.2666    1.1695   -0.8089 C   0  0  0  0  0  0  0  0  0  0  0  0
    2.1830    1.5447   -0.5644 C   0  0  0  0  0  0  0  0  0  0  0  0
    0.9011    1.5259   -0.0060 C   0  0  0  0  0  0  0  0  0  0  0  0
   -1.4506   -1.3385    2.3514 N   0  0  0  0  0  0  0  0  0  0  0  0
   -0.8516   -0.7874    3.4426 C   0  0  0  0  0  0  0  0  0  0  0  0
   -0.8184   -1.6662    4.4178 N   0  0  0  0  0  0  0  0  0  0  0  0
   -1.4282   -2.7580    3.8737 C   0  0  0  0  0  0  0  0  0  0  0  0
   -1.8531   -2.6052    2.6158 N   0  0  0  0  0  0  0  0  0  0  0  0
  1  2  1  0
  2  3  1  0
  2  4  1  0
  2  5  1  0
  5  6  1  6
  5  7  1  0
  7  8  1  1
  8  9  1  0
  9 10  2  0
 10 11  1  0
 11 12  2  0
 12 13  1  0
 13 14  2  0
 14 15  1  0
 15 16  2  0
 16 17  1  0
 17 18  2  0
 12 19  1  0
 19 20  2  0
  7 21  1  0
 21 22  1  0
 22 23  2  0
 23 24  1  0
 24 25  2  0
 20  9  1  0
 25 21  1  0
 18 13  1  0
M  END
