
     RDKit          3D

 11 10  0  0  0  0  0  0  0  0999 V2000
    2.6733    0.9983    1.5062 C   0  0  0  0  0  0  0  0  0  0  0  0
    2.7825   -0.0597    0.4432 C   0  0  0  0  0  0  0  0  0  0  0  0
    1.8305   -0.3479   -0.4658 C   0  0  0  0  0  0  0  0  0  0  0  0
    0.5001    0.3308   -0.6522 C   0  0  0  0  0  0  0  0  0  0  0  0
   -0.6399   -0.5263   -0.0907 C   0  0  0  0  0  0  0  0  0  0  0  0
   -2.0477    0.0825   -0.2659 C   0  0  2  0  0  0  0  0  0  0  0  0
   -2.2077    1.4198    0.4669 C   0  0  0  0  0  0  0  0  0  0  0  0
   -3.0753   -0.8927    0.2768 C   0  0  0  0  0  0  0  0  0  0  0  0
   -4.0598   -1.4854   -0.4146 C   0  0  0  0  0  0  0  0  0  0  0  0
   -2.2981    0.2897   -1.6565 O   0  0  0  0  0  0  0  0  0  0  0  0
    4.0791   -0.8270    0.4647 C   0  0  0  0  0  0  0  0  0  0  0  0
  1  2  1  0
  2  3  2  3
  3  4  1  0
  4  5  1  0
  5  6  1  0
  6  7  1  1
  6  8  1  0
  8  9  2  0
  6 10  1  0
  2 11  1  0
M  END
