
     RDKit          3D

 12 12  0  0  0  0  0  0  0  0999 V2000
    3.3328   -0.5546    0.9856 C   0  0  0  0  0  0  0  0  0  0  0  0
    2.4121   -0.8790    0.0660 C   0  0  0  0  0  0  0  0  0  0  0  0
    1.1855   -0.0941   -0.3681 C   0  0  2  0  0  0  0  0  0  0  0  0
    1.4163    0.3289   -1.8292 C   0  0  0  0  0  0  0  0  0  0  0  0
    0.9027    1.1357    0.5133 C   0  0  0  0  0  0  0  0  0  0  0  0
   -0.4568    1.7810    0.2655 C   0  0  0  0  0  0  0  0  0  0  0  0
   -1.4986    0.8108   -0.2867 C   0  0  2  0  0  0  0  0  0  0  0  0
   -2.7936    1.2022    0.1689 O   0  0  0  0  0  0  0  0  0  0  0  0
   -1.1875   -0.6621    0.0601 C   0  0  0  0  0  0  0  0  0  0  0  0
   -1.3567   -0.9785    1.5549 C   0  0  0  0  0  0  0  0  0  0  0  0
   -2.1538   -1.5792   -0.7116 C   0  0  0  0  0  0  0  0  0  0  0  0
    0.1259   -1.0597   -0.3607 O   0  0  0  0  0  0  0  0  0  0  0  0
  1  2  2  0
  2  3  1  0
  3  4  1  6
  3  5  1  0
  5  6  1  0
  6  7  1  0
  7  8  1  1
  7  9  1  0
  9 10  1  0
  9 11  1  0
  9 12  1  0
 12  3  1  0
M  END
