
     RDKit          3D

 10 11  0  0  0  0  0  0  0  0999 V2000
   -2.0425   -1.3265    0.7374 C   0  0  0  0  0  0  0  0  0  0  0  0
   -0.9893   -0.3221    0.2314 C   0  0  0  0  0  0  0  0  0  0  0  0
   -0.2918   -0.7174   -1.1399 C   0  0  1  0  0  0  0  0  0  0  0  0
    0.5116    0.4075   -1.8198 C   0  0  0  0  0  0  0  0  0  0  0  0
    1.6316    0.9420   -0.8983 C   0  0  0  0  0  0  0  0  0  0  0  0
    1.3770    0.6356    0.5605 C   0  0  0  0  0  0  0  0  0  0  0  0
    1.8516    1.3611    1.5812 C   0  0  0  0  0  0  0  0  0  0  0  0
    0.4689   -0.5335    0.8255 C   0  0  2  0  0  0  0  0  0  0  0  0
    0.6435   -1.6290   -0.2860 C   0  0  0  0  0  0  0  0  0  0  0  0
   -1.6010    1.0816    0.3257 C   0  0  0  0  0  0  0  0  0  0  0  0
  1  2  1  0
  2  3  1  0
  3  4  1  1
  4  5  1  0
  5  6  1  0
  6  7  2  0
  6  8  1  0
  8  9  1  6
  2 10  1  0
  8  2  1  0
  9  3  1  0
M  END
