
     RDKit          3D

 23 24  0  0  0  0  0  0  0  0999 V2000
   -3.9167    2.7930    1.0664 C   0  0  0  0  0  0  0  0  0  0  0  0
   -2.5012    2.2540    0.9275 C   0  0  0  0  0  0  0  0  0  0  0  0
   -2.0088    1.6375    2.2371 C   0  0  0  0  0  0  0  0  0  0  0  0
   -0.5488    1.1794    2.1819 C   0  0  0  0  0  0  0  0  0  0  0  0
   -0.2272    0.1202    1.1245 C   0  0  0  0  0  0  0  0  0  0  0  0
   -1.0417   -1.1799    1.2133 C   0  0  2  0  0  0  0  0  0  0  0  0
   -0.8022   -1.9269    2.5211 C   0  0  0  0  0  0  0  0  0  0  0  0
   -0.6159   -2.0627    0.1542 O   0  0  0  0  0  0  0  0  0  0  0  0
   -1.1922   -1.8716   -1.0634 C   0  0  0  0  0  0  0  0  0  0  0  0
   -2.0916   -1.0753   -1.3064 O   0  0  0  0  0  0  0  0  0  0  0  0
   -0.5739   -2.7965   -2.1075 C   0  0  0  0  0  0  0  0  0  0  0  0
    0.8329   -2.7278   -2.3033 O   0  0  0  0  0  0  0  0  0  0  0  0
    1.3020   -1.4472   -2.5137 C   0  0  0  0  0  0  0  0  0  0  0  0
    0.8169   -0.6902   -3.5843 C   0  0  0  0  0  0  0  0  0  0  0  0
    1.3060    0.5916   -3.7922 C   0  0  0  0  0  0  0  0  0  0  0  0
    2.2865    1.1038   -2.9420 C   0  0  0  0  0  0  0  0  0  0  0  0
    2.8382    2.7143   -3.2690 Cl  0  0  0  0  0  0  0  0  0  0  0  0
    2.8049    0.3355   -1.8693 C   0  0  0  0  0  0  0  0  0  0  0  0
    3.8032    0.7951   -0.9799 C   0  0  0  0  0  0  0  0  0  0  0  0
    4.2665   -0.0126    0.0506 C   0  0  0  0  0  0  0  0  0  0  0  0
    3.7187   -1.2688    0.1736 C   0  0  0  0  0  0  0  0  0  0  0  0
    2.7627   -1.7478   -0.6472 N   0  0  0  0  0  0  0  0  0  0  0  0
    2.3078   -0.9708   -1.6569 C   0  0  0  0  0  0  0  0  0  0  0  0
  1  2  1  0
  2  3  1  0
  3  4  1  0
  4  5  1  0
  5  6  1  0
  6  7  1  1
  6  8  1  0
  8  9  1  0
  9 10  2  0
  9 11  1  0
 11 12  1  0
 12 13  1  0
 13 14  2  0
 14 15  1  0
 15 16  2  0
 16 17  1  0
 16 18  1  0
 18 19  2  0
 19 20  1  0
 20 21  2  0
 21 22  1  0
 22 23  2  0
 23 13  1  0
 23 18  1  0
M  END
