
     RDKit          3D

 26 28  0  0  0  0  0  0  0  0999 V2000
   -3.7171    1.4323    0.0101 C   0  0  0  0  0  0  0  0  0  0  0  0
   -3.4499    1.7514   -1.4463 C   0  0  0  0  0  0  0  0  0  0  0  0
   -3.5517    3.2368   -1.7229 C   0  0  0  0  0  0  0  0  0  0  0  0
   -2.4060    0.9661   -2.2375 C   0  0  0  0  0  0  0  0  0  0  0  0
   -1.5580   -0.0838   -1.6273 C   0  0  0  0  0  0  0  0  0  0  0  0
   -1.4601   -1.2050   -2.1005 O   0  0  0  0  0  0  0  0  0  0  0  0
   -0.8844    0.3819   -0.5480 O   0  0  0  0  0  0  0  0  0  0  0  0
   -0.0598   -0.6038    0.1040 C   0  0  2  0  0  0  0  0  0  0  0  0
   -0.8712   -1.4754    0.9850 C   0  0  0  0  0  0  0  0  0  0  0  0
   -1.5184   -2.1459    1.6801 N   0  0  0  0  0  0  0  0  0  0  0  0
    0.9983    0.1482    0.8993 C   0  0  0  0  0  0  0  0  0  0  0  0
    0.6574    1.2376    1.7219 C   0  0  0  0  0  0  0  0  0  0  0  0
    1.6369    1.9166    2.4496 C   0  0  0  0  0  0  0  0  0  0  0  0
    2.9675    1.5099    2.3765 C   0  0  0  0  0  0  0  0  0  0  0  0
    3.3159    0.4143    1.5893 C   0  0  0  0  0  0  0  0  0  0  0  0
    4.6506    0.0802    1.5397 O   0  0  0  0  0  0  0  0  0  0  0  0
    4.9716   -1.2534    1.6560 C   0  0  0  0  0  0  0  0  0  0  0  0
    4.4451   -2.0715    2.6593 C   0  0  0  0  0  0  0  0  0  0  0  0
    4.8356   -3.4089    2.7379 C   0  0  0  0  0  0  0  0  0  0  0  0
    5.7610   -3.9211    1.8274 C   0  0  0  0  0  0  0  0  0  0  0  0
    6.3039   -3.0957    0.8419 C   0  0  0  0  0  0  0  0  0  0  0  0
    5.9149   -1.7584    0.7605 C   0  0  0  0  0  0  0  0  0  0  0  0
    2.3434   -0.2540    0.8380 C   0  0  0  0  0  0  0  0  0  0  0  0
   -3.8882    0.7465   -2.5268 C   0  0  0  0  0  0  0  0  0  0  0  0
   -4.4238    1.2605   -3.8468 C   0  0  0  0  0  0  0  0  0  0  0  0
   -4.5552   -0.5511   -2.1178 C   0  0  0  0  0  0  0  0  0  0  0  0
  1  2  1  0
  2  3  1  0
  2  4  1  0
  4  5  1  0
  5  6  2  0
  5  7  1  0
  7  8  1  0
  8  9  1  1
  9 10  3  0
  8 11  1  0
 11 12  2  0
 12 13  1  0
 13 14  2  0
 14 15  1  0
 15 16  1  0
 16 17  1  0
 17 18  2  0
 18 19  1  0
 19 20  2  0
 20 21  1  0
 21 22  2  0
 15 23  2  0
  4 24  1  0
 24 25  1  0
 24 26  1  0
 24  2  1  0
 23 11  1  0
 22 17  1  0
M  END
