
     RDKit          3D

 22 24  0  0  0  0  0  0  0  0999 V2000
   -2.8931   -2.3282   -0.3631 C   0  0  0  0  0  0  0  0  0  0  0  0
   -1.4078   -1.9387   -0.3416 C   0  0  0  0  0  0  0  0  0  0  0  0
   -0.6245   -3.2769   -0.2472 C   0  0  0  0  0  0  0  0  0  0  0  0
   -0.9768   -1.2225   -1.6435 C   0  0  0  0  0  0  0  0  0  0  0  0
    0.0826   -0.1818   -1.2541 C   0  0  0  0  0  0  0  0  0  0  0  0
    0.3288   -0.3569    0.2481 C   0  0  1  0  0  0  0  0  0  0  0  0
    0.8857    0.8828    0.9592 C   0  0  0  0  0  0  0  0  0  0  0  0
    2.3273    1.1604    0.5985 C   0  0  0  0  0  0  0  0  0  0  0  0
    2.6427    2.0624   -0.4277 C   0  0  0  0  0  0  0  0  0  0  0  0
    3.9745    2.3062   -0.7703 C   0  0  0  0  0  0  0  0  0  0  0  0
    4.9961    1.6484   -0.0894 C   0  0  0  0  0  0  0  0  0  0  0  0
    6.6368    1.9478   -0.5122 Cl  0  0  0  0  0  0  0  0  0  0  0  0
    4.6978    0.7484    0.9312 C   0  0  0  0  0  0  0  0  0  0  0  0
    3.3662    0.5040    1.2739 C   0  0  0  0  0  0  0  0  0  0  0  0
   -1.0127   -0.9187    0.7881 C   0  0  2  0  0  0  0  0  0  0  0  0
   -0.7428   -1.6204    2.0204 O   0  0  0  0  0  0  0  0  0  0  0  0
   -2.0872    0.1348    1.1959 C   0  0  0  0  0  0  0  0  0  0  0  0
   -2.4281    1.2212    0.3131 N   0  0  0  0  0  0  0  0  0  0  0  0
   -2.2643    2.5550    0.5497 C   0  0  0  0  0  0  0  0  0  0  0  0
   -2.7796    3.2486   -0.4379 N   0  0  0  0  0  0  0  0  0  0  0  0
   -3.3126    2.2830   -1.2394 C   0  0  0  0  0  0  0  0  0  0  0  0
   -3.1435    1.0311   -0.8084 N   0  0  0  0  0  0  0  0  0  0  0  0
  1  2  1  0
  2  3  1  0
  2  4  1  0
  4  5  1  0
  5  6  1  0
  6  7  1  1
  7  8  1  0
  8  9  2  0
  9 10  1  0
 10 11  2  0
 11 12  1  0
 11 13  1  0
 13 14  2  0
  6 15  1  0
 15 16  1  1
 15 17  1  0
 17 18  1  0
 18 19  1  0
 19 20  2  0
 20 21  1  0
 21 22  2  0
 15  2  1  0
 22 18  1  0
 14  8  1  0
M  END
