
     RDKit          3D

 13 14  0  0  0  0  0  0  0  0999 V2000
    3.9046    0.2760    0.4656 C   0  0  0  0  0  0  0  0  0  0  0  0
    2.9233   -0.6710    0.8362 O   0  0  0  0  0  0  0  0  0  0  0  0
    1.6537   -0.8834   -0.1457 P   0  0  1  0  0  5  0  0  0  0  0  0
    2.0429   -1.5228   -1.9339 S   0  0  0  0  0  0  0  0  0  0  0  0
    0.7243   -1.8357    0.7701 O   0  0  0  0  0  0  0  0  0  0  0  0
   -0.6321   -1.9196    0.3781 C   0  0  0  0  0  0  0  0  0  0  0  0
   -1.2530   -0.5624    0.1965 C   0  0  0  0  0  0  0  0  0  0  0  0
   -2.6498   -0.4341    0.1881 C   0  0  0  0  0  0  0  0  0  0  0  0
   -3.2475    0.8154    0.0088 C   0  0  0  0  0  0  0  0  0  0  0  0
   -2.4570    1.9492   -0.1687 C   0  0  0  0  0  0  0  0  0  0  0  0
   -1.0684    1.8336   -0.1735 C   0  0  0  0  0  0  0  0  0  0  0  0
   -0.4769    0.5831   -0.0031 C   0  0  0  0  0  0  0  0  0  0  0  0
    0.8884    0.5350   -0.0177 O   0  0  0  0  0  0  0  0  0  0  0  0
  1  2  1  0
  3  2  1  1
  3  4  2  0
  3  5  1  0
  5  6  1  0
  6  7  1  0
  7  8  2  0
  8  9  1  0
  9 10  2  0
 10 11  1  0
 11 12  2  0
 12 13  1  0
 13  3  1  0
 12  7  1  0
M  END
