
     RDKit          3D

 25 27  0  0  0  0  0  0  0  0999 V2000
   -2.8682   -2.0583   -0.7523 C   0  0  0  0  0  0  0  0  0  0  0  0
   -3.6696   -1.0684    0.1131 C   0  0  0  0  0  0  0  0  0  0  0  0
   -5.1730   -1.4071   -0.0384 C   0  0  0  0  0  0  0  0  0  0  0  0
   -3.3103   -1.2968    1.5964 C   0  0  0  0  0  0  0  0  0  0  0  0
   -3.4256    0.4230   -0.3152 C   0  0  2  0  0  0  0  0  0  0  0  0
   -4.0987    0.6919   -1.5685 O   0  0  0  0  0  0  0  0  0  0  0  0
   -1.9523    0.9098   -0.4597 C   0  0  2  0  0  0  0  0  0  0  0  0
   -1.1218    0.4272    0.5995 O   0  0  0  0  0  0  0  0  0  0  0  0
    0.2173    0.2674    0.3808 C   0  0  0  0  0  0  0  0  0  0  0  0
    0.8833   -0.4425    1.3812 C   0  0  0  0  0  0  0  0  0  0  0  0
    2.2567   -0.6911    1.2920 C   0  0  0  0  0  0  0  0  0  0  0  0
    3.0025   -0.2264    0.2002 C   0  0  0  0  0  0  0  0  0  0  0  0
    4.4489   -0.4818    0.1018 C   0  0  0  0  0  0  0  0  0  0  0  0
    5.3581    0.5708   -0.0990 C   0  0  0  0  0  0  0  0  0  0  0  0
    6.7314    0.3293   -0.1912 C   0  0  0  0  0  0  0  0  0  0  0  0
    7.2198   -0.9707   -0.0837 C   0  0  0  0  0  0  0  0  0  0  0  0
    6.3365   -2.0286    0.1146 C   0  0  0  0  0  0  0  0  0  0  0  0
    4.9633   -1.7854    0.2068 C   0  0  0  0  0  0  0  0  0  0  0  0
    2.3239    0.4989   -0.7921 C   0  0  0  0  0  0  0  0  0  0  0  0
    0.9468    0.7470   -0.7038 C   0  0  0  0  0  0  0  0  0  0  0  0
   -1.9287    2.3772   -0.4695 N   0  0  0  0  0  0  0  0  0  0  0  0
   -1.9329    3.1860   -1.5675 C   0  0  0  0  0  0  0  0  0  0  0  0
   -1.8762    4.4427   -1.1922 N   0  0  0  0  0  0  0  0  0  0  0  0
   -1.8738    4.3550    0.1707 C   0  0  0  0  0  0  0  0  0  0  0  0
   -1.9160    3.1150    0.6638 N   0  0  0  0  0  0  0  0  0  0  0  0
  1  2  1  0
  2  3  1  0
  2  4  1  0
  2  5  1  0
  5  6  1  6
  5  7  1  0
  7  8  1  1
  8  9  1  0
  9 10  2  0
 10 11  1  0
 11 12  2  0
 12 13  1  0
 13 14  2  0
 14 15  1  0
 15 16  2  0
 16 17  1  0
 17 18  2  0
 12 19  1  0
 19 20  2  0
  7 21  1  0
 21 22  1  0
 22 23  2  0
 23 24  1  0
 24 25  2  0
 20  9  1  0
 25 21  1  0
 18 13  1  0
M  END
