
     RDKit          3D

  9  9  0  0  0  0  0  0  0  0999 V2000
    3.0503    0.7295   -0.6326 O   0  0  0  0  0  0  0  0  0  0  0  0
    1.8832    0.3724   -0.6853 C   0  0  0  0  0  0  0  0  0  0  0  0
    1.2010    0.1233   -1.8411 O   0  0  0  0  0  0  0  0  0  0  0  0
   -0.0456   -0.4918   -1.5073 C   0  0  0  0  0  0  0  0  0  0  0  0
   -0.3903    0.0045   -0.1093 C   0  0  0  0  0  0  0  0  0  0  0  0
   -1.3567   -0.9456    0.5995 C   0  0  0  0  0  0  0  0  0  0  0  0
   -1.0212    1.4082   -0.1880 C   0  0  0  0  0  0  0  0  0  0  0  0
    1.0006    0.0887    0.5207 C   0  0  1  0  0  0  0  0  0  0  0  0
    1.3846   -1.1245    1.1500 O   0  0  0  0  0  0  0  0  0  0  0  0
  1  2  2  0
  2  3  1  0
  3  4  1  0
  4  5  1  0
  5  6  1  0
  5  7  1  0
  5  8  1  0
  8  9  1  6
  8  2  1  0
M  END
