
     RDKit          3D

 26 27  0  0  0  0  0  0  0  0999 V2000
   -3.5963    3.4195   -1.9693 N   0  0  0  0  0  0  0  0  0  0  0  0
   -2.8956    2.5676   -1.6067 C   0  0  0  0  0  0  0  0  0  0  0  0
   -2.0973    1.4577   -1.1776 C   0  0  0  0  0  0  0  0  0  0  0  0
   -0.8235    1.6568   -0.8244 N   0  0  0  0  0  0  0  0  0  0  0  0
   -0.3550    0.4181   -0.5069 N   0  0  0  0  0  0  0  0  0  0  0  0
    0.9850    0.2634   -0.0860 C   0  0  0  0  0  0  0  0  0  0  0  0
    1.8538   -0.6136   -0.7526 C   0  0  0  0  0  0  0  0  0  0  0  0
    1.4197   -1.4957   -2.1772 Cl  0  0  0  0  0  0  0  0  0  0  0  0
    3.1854   -0.7391   -0.3326 C   0  0  0  0  0  0  0  0  0  0  0  0
    3.6738    0.0080    0.7473 C   0  0  0  0  0  0  0  0  0  0  0  0
    5.1105   -0.1084    1.1969 C   0  0  0  0  0  0  0  0  0  0  0  0
    5.2182   -0.3247    2.5369 F   0  0  0  0  0  0  0  0  0  0  0  0
    5.8243    1.0206    0.9357 F   0  0  0  0  0  0  0  0  0  0  0  0
    5.7815   -1.1296    0.5954 F   0  0  0  0  0  0  0  0  0  0  0  0
    2.8049    0.8949    1.3967 C   0  0  0  0  0  0  0  0  0  0  0  0
    1.4707    1.0258    0.9890 C   0  0  0  0  0  0  0  0  0  0  0  0
    0.4782    2.0705    1.9499 Cl  0  0  0  0  0  0  0  0  0  0  0  0
   -1.3431   -0.5605   -0.6509 C   0  0  0  0  0  0  0  0  0  0  0  0
   -1.1882   -1.8787   -0.3520 N   0  0  0  0  0  0  0  0  0  0  0  0
   -2.4676    0.1116   -1.0721 C   0  0  0  0  0  0  0  0  0  0  0  0
   -4.0737   -0.5887   -1.4193 S   0  0  0  0  0  4  0  0  0  0  0  0
   -3.8670   -2.0716   -1.5837 O   0  0  0  0  0  0  0  0  0  0  0  0
   -4.8225   -0.2392    0.1987 C   0  0  0  0  0  0  0  0  0  0  0  0
   -6.1145   -0.6503    0.2523 F   0  0  0  0  0  0  0  0  0  0  0  0
   -4.1683   -0.8374    1.2247 F   0  0  0  0  0  0  0  0  0  0  0  0
   -4.8265    1.0949    0.4566 F   0  0  0  0  0  0  0  0  0  0  0  0
  1  2  3  0
  2  3  1  0
  3  4  2  0
  4  5  1  0
  5  6  1  0
  6  7  2  0
  7  8  1  0
  7  9  1  0
  9 10  2  0
 10 11  1  0
 11 12  1  0
 11 13  1  0
 11 14  1  0
 10 15  1  0
 15 16  2  0
 16 17  1  0
  5 18  1  0
 18 19  1  0
 18 20  2  0
 20 21  1  0
 21 22  2  0
 21 23  1  1
 23 24  1  0
 23 25  1  0
 23 26  1  0
 20  3  1  0
 16  6  1  0
M  END
