
     RDKit          3D

 25 27  0  0  0  0  0  0  0  0999 V2000
   -3.1715   -1.9983   -0.5922 C   0  0  0  0  0  0  0  0  0  0  0  0
   -3.6888   -0.5599   -0.7825 C   0  0  0  0  0  0  0  0  0  0  0  0
   -3.0590    0.0385   -2.0535 C   0  0  0  0  0  0  0  0  0  0  0  0
   -5.2178   -0.6562   -1.0097 C   0  0  0  0  0  0  0  0  0  0  0  0
   -3.4084    0.3426    0.4693 C   0  0  2  0  0  0  0  0  0  0  0  0
   -4.1703    1.5603    0.3003 O   0  0  0  0  0  0  0  0  0  0  0  0
   -1.9181    0.7025    0.7638 C   0  0  2  0  0  0  0  0  0  0  0  0
   -1.0818   -0.4572    0.7632 O   0  0  0  0  0  0  0  0  0  0  0  0
    0.2389   -0.3115    0.4360 C   0  0  0  0  0  0  0  0  0  0  0  0
    0.9450    0.8870    0.3577 C   0  0  0  0  0  0  0  0  0  0  0  0
    2.3056    0.8805    0.0212 C   0  0  0  0  0  0  0  0  0  0  0  0
    2.9904   -0.3174   -0.2357 C   0  0  0  0  0  0  0  0  0  0  0  0
    4.4195   -0.3159   -0.5881 C   0  0  0  0  0  0  0  0  0  0  0  0
    4.9015    0.4625   -1.6539 C   0  0  0  0  0  0  0  0  0  0  0  0
    6.2582    0.4643   -1.9896 C   0  0  0  0  0  0  0  0  0  0  0  0
    7.1571   -0.3123   -1.2633 C   0  0  0  0  0  0  0  0  0  0  0  0
    6.7009   -1.0907   -0.2028 C   0  0  0  0  0  0  0  0  0  0  0  0
    5.3437   -1.0923    0.1309 C   0  0  0  0  0  0  0  0  0  0  0  0
    2.2685   -1.5151   -0.1397 C   0  0  0  0  0  0  0  0  0  0  0  0
    0.9109   -1.5109    0.1954 C   0  0  0  0  0  0  0  0  0  0  0  0
   -1.8435    1.3421    2.0839 N   0  0  0  0  0  0  0  0  0  0  0  0
   -1.4285    0.8138    3.2679 C   0  0  0  0  0  0  0  0  0  0  0  0
   -1.5719    1.7044    4.2221 N   0  0  0  0  0  0  0  0  0  0  0  0
   -2.0971    2.7796    3.5678 C   0  0  0  0  0  0  0  0  0  0  0  0
   -2.3026    2.6051    2.2588 N   0  0  0  0  0  0  0  0  0  0  0  0
  1  2  1  0
  2  3  1  0
  2  4  1  0
  2  5  1  0
  5  6  1  6
  5  7  1  0
  7  8  1  1
  8  9  1  0
  9 10  2  0
 10 11  1  0
 11 12  2  0
 12 13  1  0
 13 14  2  0
 14 15  1  0
 15 16  2  0
 16 17  1  0
 17 18  2  0
 12 19  1  0
 19 20  2  0
  7 21  1  0
 21 22  1  0
 22 23  2  0
 23 24  1  0
 24 25  2  0
 20  9  1  0
 25 21  1  0
 18 13  1  0
M  END
