
     RDKit          3D

 13 12  0  0  0  0  0  0  0  0999 V2000
   -4.3132    1.4422    0.3830 C   0  0  0  0  0  0  0  0  0  0  0  0
   -3.5568    0.1613    0.2593 C   0  0  0  0  0  0  0  0  0  0  0  0
   -2.3859    0.0420   -0.3843 C   0  0  0  0  0  0  0  0  0  0  0  0
   -1.6842   -1.2776   -0.4635 C   0  0  0  0  0  0  0  0  0  0  0  0
   -2.1722   -2.2817    0.0575 O   0  0  0  0  0  0  0  0  0  0  0  0
   -0.3646   -1.3547   -1.2411 C   0  0  1  0  0  0  0  0  0  0  0  0
   -0.6355   -1.2601   -2.7426 C   0  0  0  0  0  0  0  0  0  0  0  0
    0.6250   -0.3068   -0.7793 C   0  0  0  0  0  0  0  0  0  0  0  0
    1.4245   -0.3676    0.3072 C   0  0  0  0  0  0  0  0  0  0  0  0
    1.4231   -1.5233    1.2777 C   0  0  0  0  0  0  0  0  0  0  0  0
    2.3326    0.7476    0.5704 C   0  0  0  0  0  0  0  0  0  0  0  0
    3.1935    0.8499    1.5959 C   0  0  0  0  0  0  0  0  0  0  0  0
    4.0980    2.0223    1.8046 C   0  0  0  0  0  0  0  0  0  0  0  0
  1  2  1  0
  2  3  2  0
  3  4  1  0
  4  5  2  0
  4  6  1  0
  6  7  1  6
  6  8  1  0
  8  9  2  0
  9 10  1  0
  9 11  1  0
 11 12  2  0
 12 13  1  0
M  END
