
     RDKit          3D

  8  7  0  0  0  0  0  0  0  0999 V2000
   -2.8807   -0.0823    0.4486 C   0  0  0  0  0  0  0  0  0  0  0  0
   -1.4583   -0.3596   -0.0141 C   0  0  0  0  0  0  0  0  0  0  0  0
   -0.5888    0.9002    0.0724 C   0  0  0  0  0  0  0  0  0  0  0  0
    0.8630    0.6722   -0.3699 C   0  0  2  0  0  0  0  0  0  0  0  0
    0.8974    0.1479   -1.6914 O   0  0  0  0  0  0  0  0  0  0  0  0
    1.6433   -0.2108    0.6181 C   0  0  0  0  0  0  0  0  0  0  0  0
    2.8748   -0.8993    0.0879 C   0  0  0  0  0  0  0  0  0  0  0  0
    1.3280   -0.3123    1.8056 O   0  0  0  0  0  0  0  0  0  0  0  0
  1  2  1  0
  2  3  1  0
  3  4  1  0
  4  5  1  6
  4  6  1  0
  6  7  1  0
  6  8  2  0
M  END
