
     RDKit          3D

 12 13  0  0  0  0  0  0  0  0999 V2000
    0.3469   -2.7972    0.5616 O   0  0  0  0  0  0  0  0  0  0  0  0
   -0.2042   -1.4777    0.5765 C   0  0  2  0  0  0  0  0  0  0  0  0
   -1.4647   -1.4850   -0.2918 C   0  0  0  0  0  0  0  0  0  0  0  0
   -2.4646   -0.3851    0.0663 C   0  0  0  0  0  0  0  0  0  0  0  0
   -1.9658    1.0463   -0.1287 C   0  0  0  0  0  0  0  0  0  0  0  0
   -0.7899    1.4272    0.7726 C   0  0  0  0  0  0  0  0  0  0  0  0
    0.5322    0.9311    0.2353 C   0  0  0  0  0  0  0  0  0  0  0  0
    1.4920    1.8723   -0.1776 C   0  0  0  0  0  0  0  0  0  0  0  0
    2.7068    1.4636   -0.7235 C   0  0  0  0  0  0  0  0  0  0  0  0
    2.9747    0.1091   -0.8735 C   0  0  0  0  0  0  0  0  0  0  0  0
    2.0338   -0.8362   -0.4635 C   0  0  0  0  0  0  0  0  0  0  0  0
    0.8100   -0.4466    0.1130 C   0  0  0  0  0  0  0  0  0  0  0  0
  2  1  1  6
  2  3  1  0
  3  4  1  0
  4  5  1  0
  5  6  1  0
  6  7  1  0
  7  8  2  0
  8  9  1  0
  9 10  2  0
 10 11  1  0
 11 12  2  0
 12  2  1  0
 12  7  1  0
M  END
