
     RDKit          3D

 15 16  0  0  0  0  0  0  0  0999 V2000
    3.0755   -1.5915    1.8489 C   0  0  0  0  0  0  0  0  0  0  0  0
    2.7958   -0.2992    1.3522 O   0  0  0  0  0  0  0  0  0  0  0  0
    1.9131   -0.2260    0.0008 P   0  0  0  0  0  5  0  0  0  0  0  0
    2.4383   -1.0863   -1.1075 O   0  0  0  0  0  0  0  0  0  0  0  0
    1.8695    1.3574   -0.2964 O   0  0  0  0  0  0  0  0  0  0  0  0
    3.0246    1.9173   -0.8837 C   0  0  0  0  0  0  0  0  0  0  0  0
    0.4264   -0.5751    0.5273 O   0  0  0  0  0  0  0  0  0  0  0  0
   -0.6467   -0.5332   -0.1677 C   0  0  0  0  0  0  0  0  0  0  0  0
   -1.0234   -0.2126   -1.4292 C   0  0  0  0  0  0  0  0  0  0  0  0
   -0.1493    0.3552   -2.8659 Cl  0  0  0  0  0  0  0  0  0  0  0  0
   -2.4902   -0.5129   -1.1953 C   0  0  2  0  0  0  0  0  0  0  0  0
   -3.3732    0.6710   -1.0946 C   0  0  0  0  0  0  0  0  0  0  0  0
   -3.5595    1.0067    0.1876 C   0  0  0  0  0  0  0  0  0  0  0  0
   -2.8252    0.1160    1.1481 C   0  0  0  0  0  0  0  0  0  0  0  0
   -2.0815   -0.8827    0.2472 C   0  0  2  0  0  0  0  0  0  0  0  0
  1  2  1  0
  2  3  1  0
  3  4  2  0
  3  5  1  0
  5  6  1  0
  3  7  1  0
  7  8  1  0
  8  9  2  0
  9 10  1  0
  9 11  1  0
 11 12  1  1
 12 13  2  0
 13 14  1  0
 15 14  1  1
 15  8  1  0
 15 11  1  0
M  END
