
     RDKit          3D

 24 26  0  0  0  0  0  0  0  0999 V2000
   -6.2729   -0.5933    0.7874 C   0  0  0  0  0  0  0  0  0  0  0  0
   -5.4605   -0.7457   -0.4671 C   0  0  0  0  0  0  0  0  0  0  0  0
   -6.2481   -0.6572   -1.7447 C   0  0  0  0  0  0  0  0  0  0  0  0
   -4.1290   -0.9465   -0.4820 C   0  0  0  0  0  0  0  0  0  0  0  0
   -3.2365   -1.0609    0.6770 C   0  0  1  0  0  0  0  0  0  0  0  0
   -1.7795   -0.6571    0.6431 C   0  0  1  0  0  0  0  0  0  0  0  0
   -1.0562   -0.0997   -0.5283 C   0  0  0  0  0  0  0  0  0  0  0  0
   -1.5889    0.2657   -1.5654 O   0  0  0  0  0  0  0  0  0  0  0  0
    0.2780   -0.0455   -0.2806 O   0  0  0  0  0  0  0  0  0  0  0  0
    1.0195    0.4706   -1.3837 C   0  0  0  0  0  0  0  0  0  0  0  0
    2.4153    0.3776   -1.0555 N   0  0  0  0  0  0  0  0  0  0  0  0
    3.1755   -0.7271   -1.2640 C   0  0  0  0  0  0  0  0  0  0  0  0
    2.8627   -1.7878   -1.7715 O   0  0  0  0  0  0  0  0  0  0  0  0
    4.5110   -0.4135   -0.7503 C   0  0  0  0  0  0  0  0  0  0  0  0
    4.4866    0.8321   -0.2713 C   0  0  0  0  0  0  0  0  0  0  0  0
    5.6366    1.5266    0.3539 C   0  0  0  0  0  0  0  0  0  0  0  0
    6.7674    0.5303    0.6690 C   0  0  0  0  0  0  0  0  0  0  0  0
    6.9773   -0.4965   -0.4557 C   0  0  0  0  0  0  0  0  0  0  0  0
    5.6997   -1.2969   -0.7678 C   0  0  0  0  0  0  0  0  0  0  0  0
    3.1314    1.3592   -0.4506 C   0  0  0  0  0  0  0  0  0  0  0  0
    2.7734    2.4712   -0.1100 O   0  0  0  0  0  0  0  0  0  0  0  0
   -2.7786    0.1778    1.4328 C   0  0  0  0  0  0  0  0  0  0  0  0
   -2.7174    0.0831    2.9385 C   0  0  0  0  0  0  0  0  0  0  0  0
   -3.1482    1.5607    0.9444 C   0  0  0  0  0  0  0  0  0  0  0  0
  1  2  1  0
  2  3  1  0
  2  4  2  3
  5  4  1  6
  5  6  1  0
  6  7  1  6
  7  8  2  0
  7  9  1  0
  9 10  1  0
 10 11  1  0
 11 12  1  0
 12 13  2  0
 12 14  1  0
 14 15  2  0
 15 16  1  0
 16 17  1  0
 17 18  1  0
 18 19  1  0
 15 20  1  0
 20 21  2  0
  6 22  1  0
 22 23  1  0
 22 24  1  0
 22  5  1  0
 20 11  1  0
 19 14  1  0
M  END
