
     RDKit          3D

 10 10  0  0  0  0  0  0  0  0999 V2000
   -2.6046   -1.2704    0.6715 C   0  0  0  0  0  0  0  0  0  0  0  0
   -1.8045   -0.1865   -0.0649 C   0  0  0  0  0  0  0  0  0  0  0  0
   -1.6933    1.0533    0.8244 C   0  0  0  0  0  0  0  0  0  0  0  0
   -0.4449   -0.7340   -0.5914 C   0  0  1  0  0  0  0  0  0  0  0  0
    0.2728    0.2388   -1.5549 C   0  0  0  0  0  0  0  0  0  0  0  0
    1.2939    1.1536   -0.8750 C   0  0  0  0  0  0  0  0  0  0  0  0
    2.2456    0.3925    0.0130 C   0  0  0  0  0  0  0  0  0  0  0  0
    3.5353    0.7405    0.1363 C   0  0  0  0  0  0  0  0  0  0  0  0
    1.7003   -0.7327    0.7413 C   0  0  0  0  0  0  0  0  0  0  0  0
    0.4808   -1.2319    0.4949 C   0  0  0  0  0  0  0  0  0  0  0  0
  1  2  1  0
  2  3  1  0
  4  2  1  1
  4  5  1  0
  5  6  1  0
  6  7  1  0
  7  8  2  0
  7  9  1  0
  9 10  2  0
 10  4  1  0
M  END
