
     RDKit          3D

 25 27  0  0  0  0  0  0  0  0999 V2000
   -3.0125    0.4998    1.4327 C   0  0  0  0  0  0  0  0  0  0  0  0
   -3.6032    0.7129    0.0259 C   0  0  0  0  0  0  0  0  0  0  0  0
   -4.6396   -0.3952   -0.2325 C   0  0  0  0  0  0  0  0  0  0  0  0
   -4.3690    2.0601    0.0498 C   0  0  0  0  0  0  0  0  0  0  0  0
   -2.5228    0.7798   -1.1148 C   0  0  1  0  0  0  0  0  0  0  0  0
   -1.7027    1.9550   -0.9101 O   0  0  0  0  0  0  0  0  0  0  0  0
   -1.5815   -0.4365   -1.3746 C   0  0  1  0  0  0  0  0  0  0  0  0
   -0.9065   -0.8333   -0.1714 O   0  0  0  0  0  0  0  0  0  0  0  0
    0.3961   -0.4823    0.0320 C   0  0  0  0  0  0  0  0  0  0  0  0
    0.9981   -1.1257    1.1150 C   0  0  0  0  0  0  0  0  0  0  0  0
    2.3282   -0.8620    1.4571 C   0  0  0  0  0  0  0  0  0  0  0  0
    3.0898    0.0608    0.7274 C   0  0  0  0  0  0  0  0  0  0  0  0
    4.4899    0.3432    1.0830 C   0  0  0  0  0  0  0  0  0  0  0  0
    5.4283   -0.6950    1.2089 C   0  0  0  0  0  0  0  0  0  0  0  0
    6.7582   -0.4282    1.5460 C   0  0  0  0  0  0  0  0  0  0  0  0
    7.1725    0.8831    1.7643 C   0  0  0  0  0  0  0  0  0  0  0  0
    6.2589    1.9271    1.6454 C   0  0  0  0  0  0  0  0  0  0  0  0
    4.9296    1.6587    1.3071 C   0  0  0  0  0  0  0  0  0  0  0  0
    2.4697    0.7090   -0.3518 C   0  0  0  0  0  0  0  0  0  0  0  0
    1.1369    0.4439   -0.6969 C   0  0  0  0  0  0  0  0  0  0  0  0
   -2.2674   -1.6019   -1.9310 N   0  0  0  0  0  0  0  0  0  0  0  0
   -2.2282   -2.8950   -1.5011 C   0  0  0  0  0  0  0  0  0  0  0  0
   -2.9340   -3.6526   -2.3086 N   0  0  0  0  0  0  0  0  0  0  0  0
   -3.3706   -2.7714   -3.2536 C   0  0  0  0  0  0  0  0  0  0  0  0
   -2.9812   -1.5065   -3.0762 N   0  0  0  0  0  0  0  0  0  0  0  0
  1  2  1  0
  2  3  1  0
  2  4  1  0
  2  5  1  0
  5  6  1  1
  5  7  1  0
  7  8  1  1
  8  9  1  0
  9 10  2  0
 10 11  1  0
 11 12  2  0
 12 13  1  0
 13 14  2  0
 14 15  1  0
 15 16  2  0
 16 17  1  0
 17 18  2  0
 12 19  1  0
 19 20  2  0
  7 21  1  0
 21 22  1  0
 22 23  2  0
 23 24  1  0
 24 25  2  0
 20  9  1  0
 25 21  1  0
 18 13  1  0
M  END
