
     RDKit          3D

 26 28  0  0  0  0  0  0  0  0999 V2000
   -2.8053    0.8937    1.0906 C   0  0  0  0  0  0  0  0  0  0  0  0
   -3.8501   -0.0243    0.5004 C   0  0  0  0  0  0  0  0  0  0  0  0
   -4.3696   -1.0421    1.4880 C   0  0  0  0  0  0  0  0  0  0  0  0
   -4.7603    0.5756   -0.5581 C   0  0  2  0  0  0  0  0  0  0  0  0
   -6.1919    0.2375   -0.6014 C   0  0  0  0  0  0  0  0  0  0  0  0
   -7.1754    0.7687    0.1416 C   0  0  0  0  0  0  0  0  0  0  0  0
   -6.8753    1.9843    1.3299 Cl  0  0  0  0  0  0  0  0  0  0  0  0
   -8.8077    0.2424   -0.0682 Cl  0  0  0  0  0  0  0  0  0  0  0  0
   -3.7392   -0.4750   -0.9501 C   0  0  1  0  0  0  0  0  0  0  0  0
   -2.5930   -0.0953   -1.8074 C   0  0  0  0  0  0  0  0  0  0  0  0
   -2.7375    0.5416   -2.8394 O   0  0  0  0  0  0  0  0  0  0  0  0
   -1.4254   -0.5731   -1.3128 O   0  0  0  0  0  0  0  0  0  0  0  0
   -0.2840   -0.2329   -2.1061 C   0  0  0  0  0  0  0  0  0  0  0  0
    0.9693   -0.6782   -1.3920 C   0  0  0  0  0  0  0  0  0  0  0  0
    1.0433   -1.9380   -0.7775 C   0  0  0  0  0  0  0  0  0  0  0  0
    2.2196   -2.3590   -0.1534 C   0  0  0  0  0  0  0  0  0  0  0  0
    3.3388   -1.5276   -0.1383 C   0  0  0  0  0  0  0  0  0  0  0  0
    3.2751   -0.2692   -0.7398 C   0  0  0  0  0  0  0  0  0  0  0  0
    4.3535    0.5859   -0.8039 O   0  0  0  0  0  0  0  0  0  0  0  0
    5.0967    0.7457    0.3428 C   0  0  0  0  0  0  0  0  0  0  0  0
    4.5169    1.1081    1.5612 C   0  0  0  0  0  0  0  0  0  0  0  0
    5.3251    1.2891    2.6842 C   0  0  0  0  0  0  0  0  0  0  0  0
    6.7074    1.1207    2.5843 C   0  0  0  0  0  0  0  0  0  0  0  0
    7.2854    0.7814    1.3601 C   0  0  0  0  0  0  0  0  0  0  0  0
    6.4803    0.6030    0.2350 C   0  0  0  0  0  0  0  0  0  0  0  0
    2.1058    0.1445   -1.3824 C   0  0  0  0  0  0  0  0  0  0  0  0
  1  2  1  0
  2  3  1  0
  2  4  1  0
  4  5  1  1
  5  6  2  3
  6  7  1  0
  6  8  1  0
  4  9  1  0
  9 10  1  6
 10 11  2  0
 10 12  1  0
 12 13  1  0
 13 14  1  0
 14 15  2  0
 15 16  1  0
 16 17  2  0
 17 18  1  0
 18 19  1  0
 19 20  1  0
 20 21  2  0
 21 22  1  0
 22 23  2  0
 23 24  1  0
 24 25  2  0
 18 26  2  0
  9  2  1  0
 26 14  1  0
 25 20  1  0
M  END
