
     RDKit          3D

  8  7  0  0  0  0  0  0  0  0999 V2000
   -1.1521   -0.3693   -0.6985 C   0  0  1  0  0  0  0  0  0  0  0  0
   -1.5169    0.5936   -1.6973 O   0  0  0  0  0  0  0  0  0  0  0  0
    0.3700   -0.3130   -0.3917 C   0  0  0  0  0  0  0  0  0  0  0  0
    0.7374    0.8066    0.4205 O   0  0  0  0  0  0  0  0  0  0  0  0
    0.7398    2.0381   -0.2864 C   0  0  0  0  0  0  0  0  0  0  0  0
    0.7098   -1.5292    0.2917 O   0  0  0  0  0  0  0  0  0  0  0  0
    2.1125   -1.6632    0.4724 C   0  0  0  0  0  0  0  0  0  0  0  0
   -2.0130   -0.1501    0.5422 C   0  0  0  0  0  0  0  0  0  0  0  0
  1  2  1  0
  1  3  1  0
  3  4  1  0
  4  5  1  0
  3  6  1  0
  6  7  1  0
  1  8  1  1
M  END
