
     RDKit          3D

 10 10  0  0  0  0  0  0  0  0999 V2000
   -3.6275   -0.3534    0.4177 C   0  0  0  0  0  0  0  0  0  0  0  0
   -2.1650   -0.0959    0.1971 C   0  0  0  0  0  0  0  0  0  0  0  0
   -1.6295    1.1314    0.3168 C   0  0  0  0  0  0  0  0  0  0  0  0
   -0.1653    1.4184    0.1298 C   0  0  0  0  0  0  0  0  0  0  0  0
    0.7186    0.1517    0.2116 C   0  0  1  0  0  0  0  0  0  0  0  0
    0.0852   -0.9545   -0.6496 C   0  0  0  0  0  0  0  0  0  0  0  0
   -1.3295   -1.2979   -0.1672 C   0  0  0  0  0  0  0  0  0  0  0  0
    2.1955    0.3519   -0.1319 C   0  0  0  0  0  0  0  0  0  0  0  0
    2.6946    1.3949   -0.8178 C   0  0  0  0  0  0  0  0  0  0  0  0
    3.1293   -0.7118    0.3931 C   0  0  0  0  0  0  0  0  0  0  0  0
  1  2  1  0
  2  3  2  0
  3  4  1  0
  4  5  1  0
  5  6  1  0
  6  7  1  0
  5  8  1  6
  8  9  2  0
  8 10  1  0
  7  2  1  0
M  END
