
     RDKit          3D

  8  7  0  0  0  0  0  0  0  0999 V2000
    2.8759   -0.2507   -0.4319 C   0  0  0  0  0  0  0  0  0  0  0  0
    1.7473    0.5465    0.2033 C   0  0  0  0  0  0  0  0  0  0  0  0
    0.4232   -0.2211    0.1542 C   0  0  0  0  0  0  0  0  0  0  0  0
   -0.7159    0.5632    0.8078 C   0  0  2  0  0  0  0  0  0  0  0  0
   -1.9725   -0.2980    0.9604 C   0  0  0  0  0  0  0  0  0  0  0  0
   -2.4866   -0.4829    2.0657 O   0  0  0  0  0  0  0  0  0  0  0  0
   -2.5687   -0.9019   -0.2852 C   0  0  0  0  0  0  0  0  0  0  0  0
   -1.0038    1.7236    0.0376 O   0  0  0  0  0  0  0  0  0  0  0  0
  1  2  1  0
  2  3  1  0
  3  4  1  0
  4  5  1  0
  5  6  2  0
  5  7  1  0
  4  8  1  6
M  END
