
     RDKit          3D

 13 12  0  0  0  0  0  0  0  0999 V2000
    3.2138    0.9664   -1.1940 C   0  0  0  0  0  0  0  0  0  0  0  0
    2.1587    0.4053   -0.5851 C   0  0  0  0  0  0  0  0  0  0  0  0
    1.8572   -1.0517   -0.7505 C   0  0  0  0  0  0  0  0  0  0  0  0
    0.6695   -1.5951    0.0514 C   0  0  1  0  0  0  0  0  0  0  0  0
   -0.5980   -1.2414   -0.6935 C   0  0  0  0  0  0  0  0  0  0  0  0
   -1.6252   -0.4528   -0.3121 C   0  0  0  0  0  0  0  0  0  0  0  0
   -2.7770   -0.2429   -1.2691 C   0  0  0  0  0  0  0  0  0  0  0  0
   -1.6903    0.2059    0.9878 C   0  0  0  0  0  0  0  0  0  0  0  0
   -2.6449    1.0581    1.3968 C   0  0  0  0  0  0  0  0  0  0  0  0
   -2.6617    1.6982    2.7485 C   0  0  0  0  0  0  0  0  0  0  0  0
    0.7765   -3.1086    0.2330 C   0  0  0  0  0  0  0  0  0  0  0  0
    2.5254   -1.7522   -1.5096 O   0  0  0  0  0  0  0  0  0  0  0  0
    3.5707    2.4112   -1.0782 C   0  0  0  0  0  0  0  0  0  0  0  0
  1  2  2  0
  2  3  1  0
  3  4  1  0
  4  5  1  0
  5  6  2  0
  6  7  1  0
  6  8  1  0
  8  9  2  0
  9 10  1  0
  4 11  1  6
  3 12  2  0
  1 13  1  0
M  END
