
     RDKit          3D

 24 25  0  0  0  0  0  0  0  0999 V2000
   -3.9635    2.4328    1.0642 C   0  0  0  0  0  0  0  0  0  0  0  0
   -2.6373    2.2250    0.5773 O   0  0  0  0  0  0  0  0  0  0  0  0
   -2.5564    1.2950   -0.4210 C   0  0  0  0  0  0  0  0  0  0  0  0
   -3.5166    0.7118   -0.9076 O   0  0  0  0  0  0  0  0  0  0  0  0
   -1.0832    1.0837   -0.8220 C   0  0  2  0  0  0  0  0  0  0  0  0
   -1.0180    1.0340   -2.3538 C   0  0  0  0  0  0  0  0  0  0  0  0
   -0.3904   -0.0765   -0.1992 N   0  0  0  0  0  0  0  0  0  0  0  0
    0.9896   -0.1371    0.0576 C   0  0  0  0  0  0  0  0  0  0  0  0
    1.5100   -1.0964    0.6332 O   0  0  0  0  0  0  0  0  0  0  0  0
    1.8266    1.0716   -0.3602 C   0  0  0  0  0  0  0  0  0  0  0  0
    3.3115    0.8018   -0.4527 C   0  0  0  0  0  0  0  0  0  0  0  0
    4.1380    0.9656    0.6680 C   0  0  0  0  0  0  0  0  0  0  0  0
    5.5078    0.7120    0.5795 C   0  0  0  0  0  0  0  0  0  0  0  0
    6.0634    0.2878   -0.6262 C   0  0  0  0  0  0  0  0  0  0  0  0
    5.2494    0.1115   -1.7438 C   0  0  0  0  0  0  0  0  0  0  0  0
    3.8790    0.3636   -1.6581 C   0  0  0  0  0  0  0  0  0  0  0  0
   -1.2107   -1.0635    0.4318 C   0  0  0  0  0  0  0  0  0  0  0  0
   -1.5000   -0.9552    1.8133 C   0  0  0  0  0  0  0  0  0  0  0  0
   -0.8942    0.1035    2.6951 C   0  0  0  0  0  0  0  0  0  0  0  0
   -2.3336   -1.9117    2.4134 C   0  0  0  0  0  0  0  0  0  0  0  0
   -2.8860   -2.9451    1.6629 C   0  0  0  0  0  0  0  0  0  0  0  0
   -2.5862   -3.0566    0.3081 C   0  0  0  0  0  0  0  0  0  0  0  0
   -1.7299   -2.1376   -0.3197 C   0  0  0  0  0  0  0  0  0  0  0  0
   -1.4202   -2.3512   -1.7742 C   0  0  0  0  0  0  0  0  0  0  0  0
  1  2  1  0
  2  3  1  0
  3  4  2  0
  3  5  1  0
  5  6  1  6
  5  7  1  0
  7  8  1  0
  8  9  2  0
  8 10  1  0
 10 11  1  0
 11 12  2  0
 12 13  1  0
 13 14  2  0
 14 15  1  0
 15 16  2  0
  7 17  1  0
 17 18  2  0
 18 19  1  0
 18 20  1  0
 20 21  2  0
 21 22  1  0
 22 23  2  0
 23 24  1  0
 16 11  1  0
 23 17  1  0
M  END
