
     RDKit          3D

 25 27  0  0  0  0  0  0  0  0999 V2000
   -4.6721   -0.0667    0.3140 C   0  0  0  0  0  0  0  0  0  0  0  0
   -3.3703    0.4874    0.9182 C   0  0  0  0  0  0  0  0  0  0  0  0
   -3.7520    1.7185    1.7755 C   0  0  0  0  0  0  0  0  0  0  0  0
   -2.7683   -0.5741    1.8570 C   0  0  0  0  0  0  0  0  0  0  0  0
   -2.3284    0.9389   -0.1596 C   0  0  2  0  0  0  0  0  0  0  0  0
   -2.8978    1.9724   -0.9845 O   0  0  0  0  0  0  0  0  0  0  0  0
   -1.6263   -0.1735   -1.0037 C   0  0  2  0  0  0  0  0  0  0  0  0
   -0.5532    0.4051   -1.7816 O   0  0  0  0  0  0  0  0  0  0  0  0
    0.6580    0.2832   -1.1615 C   0  0  0  0  0  0  0  0  0  0  0  0
    1.2446    1.4242   -0.6257 C   0  0  0  0  0  0  0  0  0  0  0  0
    2.4932    1.3339   -0.0055 C   0  0  0  0  0  0  0  0  0  0  0  0
    3.1786    0.1088    0.0687 C   0  0  0  0  0  0  0  0  0  0  0  0
    4.4960    0.0152    0.7194 C   0  0  0  0  0  0  0  0  0  0  0  0
    4.7358   -0.9231    1.7374 C   0  0  0  0  0  0  0  0  0  0  0  0
    5.9864   -1.0129    2.3549 C   0  0  0  0  0  0  0  0  0  0  0  0
    7.0199   -0.1660    1.9633 C   0  0  0  0  0  0  0  0  0  0  0  0
    6.8042    0.7703    0.9554 C   0  0  0  0  0  0  0  0  0  0  0  0
    5.5527    0.8597    0.3397 C   0  0  0  0  0  0  0  0  0  0  0  0
    2.5768   -1.0223   -0.5109 C   0  0  0  0  0  0  0  0  0  0  0  0
    1.3281   -0.9365   -1.1327 C   0  0  0  0  0  0  0  0  0  0  0  0
   -2.4983   -0.8457   -1.9566 N   0  0  0  0  0  0  0  0  0  0  0  0
   -2.5424   -2.1796   -2.2275 C   0  0  0  0  0  0  0  0  0  0  0  0
   -3.4434   -2.4118   -3.1535 N   0  0  0  0  0  0  0  0  0  0  0  0
   -3.9191   -1.1647   -3.4427 C   0  0  0  0  0  0  0  0  0  0  0  0
   -3.3804   -0.1696   -2.7314 N   0  0  0  0  0  0  0  0  0  0  0  0
  1  2  1  0
  2  3  1  0
  2  4  1  0
  2  5  1  0
  5  6  1  6
  5  7  1  0
  7  8  1  6
  8  9  1  0
  9 10  2  0
 10 11  1  0
 11 12  2  0
 12 13  1  0
 13 14  2  0
 14 15  1  0
 15 16  2  0
 16 17  1  0
 17 18  2  0
 12 19  1  0
 19 20  2  0
  7 21  1  0
 21 22  1  0
 22 23  2  0
 23 24  1  0
 24 25  2  0
 20  9  1  0
 25 21  1  0
 18 13  1  0
M  END
