
     RDKit          3D

 25 27  0  0  0  0  0  0  0  0999 V2000
   -5.1694    1.6380    0.8744 C   0  0  0  0  0  0  0  0  0  0  0  0
   -3.6453    1.3697    0.8363 C   0  0  0  0  0  0  0  0  0  0  0  0
   -3.0406    2.3004   -0.2292 C   0  0  0  0  0  0  0  0  0  0  0  0
   -3.0700    1.7497    2.2142 C   0  0  0  0  0  0  0  0  0  0  0  0
   -3.4083   -0.1455    0.5077 C   0  0  2  0  0  0  0  0  0  0  0  0
   -4.1004   -0.9197    1.5089 O   0  0  0  0  0  0  0  0  0  0  0  0
   -1.9223   -0.6109    0.4189 C   0  0  2  0  0  0  0  0  0  0  0  0
   -1.2836    0.0026   -0.7166 O   0  0  0  0  0  0  0  0  0  0  0  0
    0.0804    0.0476   -0.6313 C   0  0  0  0  0  0  0  0  0  0  0  0
    0.7444    0.7587    0.3637 C   0  0  0  0  0  0  0  0  0  0  0  0
    2.1424    0.7734    0.3885 C   0  0  0  0  0  0  0  0  0  0  0  0
    2.8944    0.0941   -0.5853 C   0  0  0  0  0  0  0  0  0  0  0  0
    4.3663    0.1040   -0.5507 C   0  0  0  0  0  0  0  0  0  0  0  0
    5.0984   -1.0949   -0.5830 C   0  0  0  0  0  0  0  0  0  0  0  0
    6.4955   -1.0880   -0.5466 C   0  0  0  0  0  0  0  0  0  0  0  0
    7.1852    0.1198   -0.4788 C   0  0  0  0  0  0  0  0  0  0  0  0
    6.4795    1.3197   -0.4471 C   0  0  0  0  0  0  0  0  0  0  0  0
    5.0824    1.3110   -0.4823 C   0  0  0  0  0  0  0  0  0  0  0  0
    2.1989   -0.5889   -1.5968 C   0  0  0  0  0  0  0  0  0  0  0  0
    0.8022   -0.6032   -1.6270 C   0  0  0  0  0  0  0  0  0  0  0  0
   -1.8236   -2.0678    0.2617 N   0  0  0  0  0  0  0  0  0  0  0  0
   -0.8439   -2.8790    0.7536 C   0  0  0  0  0  0  0  0  0  0  0  0
   -1.1055   -4.1273    0.4430 N   0  0  0  0  0  0  0  0  0  0  0  0
   -2.2792   -4.0346   -0.2463 C   0  0  0  0  0  0  0  0  0  0  0  0
   -2.7750   -2.7999   -0.3673 N   0  0  0  0  0  0  0  0  0  0  0  0
  1  2  1  0
  2  3  1  0
  2  4  1  0
  2  5  1  0
  5  6  1  1
  5  7  1  0
  7  8  1  6
  8  9  1  0
  9 10  2  0
 10 11  1  0
 11 12  2  0
 12 13  1  0
 13 14  2  0
 14 15  1  0
 15 16  2  0
 16 17  1  0
 17 18  2  0
 12 19  1  0
 19 20  2  0
  7 21  1  0
 21 22  1  0
 22 23  2  0
 23 24  1  0
 24 25  2  0
 20  9  1  0
 25 21  1  0
 18 13  1  0
M  END
