
     RDKit          3D

 10  9  0  0  0  0  0  0  0  0999 V2000
    2.7891    0.8153   -0.9245 C   0  0  0  0  0  0  0  0  0  0  0  0
    2.4790   -0.6290   -0.5641 C   0  0  0  0  0  0  0  0  0  0  0  0
    2.0316   -0.8160    0.8876 C   0  0  0  0  0  0  0  0  0  0  0  0
    0.7780   -0.0403    1.3056 C   0  0  0  0  0  0  0  0  0  0  0  0
   -0.4682   -0.4135    0.4952 C   0  0  0  0  0  0  0  0  0  0  0  0
   -1.7167    0.3180    0.9911 C   0  0  1  0  0  0  0  0  0  0  0  0
   -2.9241   -0.0090    0.1074 C   0  0  0  0  0  0  0  0  0  0  0  0
   -3.8008   -0.7848    0.4971 O   0  0  0  0  0  0  0  0  0  0  0  0
   -2.9856    0.6340   -1.2521 C   0  0  0  0  0  0  0  0  0  0  0  0
   -1.9913   -0.0685    2.3366 O   0  0  0  0  0  0  0  0  0  0  0  0
  1  2  1  0
  2  3  1  0
  3  4  1  0
  4  5  1  0
  5  6  1  0
  6  7  1  0
  7  8  2  0
  7  9  1  0
  6 10  1  1
M  END
