
     RDKit          3D

 26 28  0  0  0  0  0  0  0  0999 V2000
   -1.4351   -1.2257   -1.5379 C   0  0  0  0  0  0  0  0  0  0  0  0
   -2.7183   -0.6271   -1.0089 C   0  0  0  0  0  0  0  0  0  0  0  0
   -3.9548   -1.2160   -1.6472 C   0  0  0  0  0  0  0  0  0  0  0  0
   -2.7183   -0.1791    0.4438 C   0  0  2  0  0  0  0  0  0  0  0  0
   -3.8987   -0.3744    1.3015 C   0  0  0  0  0  0  0  0  0  0  0  0
   -4.3301    0.4203    2.2957 C   0  0  0  0  0  0  0  0  0  0  0  0
   -3.5188    1.8794    2.7306 Cl  0  0  0  0  0  0  0  0  0  0  0  0
   -5.7389   -0.0058    3.2032 Cl  0  0  0  0  0  0  0  0  0  0  0  0
   -2.7685    0.8551   -0.6657 C   0  0  1  0  0  0  0  0  0  0  0  0
   -1.6077    1.7438   -0.9152 C   0  0  0  0  0  0  0  0  0  0  0  0
   -1.1826    1.9493   -2.0418 O   0  0  0  0  0  0  0  0  0  0  0  0
   -1.1378    2.2685    0.2413 O   0  0  0  0  0  0  0  0  0  0  0  0
    0.0666    3.0326    0.1477 C   0  0  0  0  0  0  0  0  0  0  0  0
    1.1418    2.2743    0.8807 C   0  0  0  0  0  0  0  0  0  0  0  0
    1.1679    2.2611    2.2840 C   0  0  0  0  0  0  0  0  0  0  0  0
    2.1517    1.5474    2.9706 C   0  0  0  0  0  0  0  0  0  0  0  0
    3.1090    0.8232    2.2612 C   0  0  0  0  0  0  0  0  0  0  0  0
    3.0632    0.7964    0.8680 C   0  0  0  0  0  0  0  0  0  0  0  0
    4.0335    0.0756    0.2131 O   0  0  0  0  0  0  0  0  0  0  0  0
    3.6108   -0.9032   -0.6602 C   0  0  0  0  0  0  0  0  0  0  0  0
    4.3807   -1.0843   -1.8105 C   0  0  0  0  0  0  0  0  0  0  0  0
    4.0401   -2.0778   -2.7305 C   0  0  0  0  0  0  0  0  0  0  0  0
    2.9322   -2.8925   -2.4980 C   0  0  0  0  0  0  0  0  0  0  0  0
    2.1736   -2.7266   -1.3387 C   0  0  0  0  0  0  0  0  0  0  0  0
    2.5147   -1.7363   -0.4148 C   0  0  0  0  0  0  0  0  0  0  0  0
    2.0989    1.5312    0.1735 C   0  0  0  0  0  0  0  0  0  0  0  0
  1  2  1  0
  2  3  1  0
  2  4  1  0
  4  5  1  1
  5  6  2  3
  6  7  1  0
  6  8  1  0
  4  9  1  0
  9 10  1  6
 10 11  2  0
 10 12  1  0
 12 13  1  0
 13 14  1  0
 14 15  2  0
 15 16  1  0
 16 17  2  0
 17 18  1  0
 18 19  1  0
 19 20  1  0
 20 21  2  0
 21 22  1  0
 22 23  2  0
 23 24  1  0
 24 25  2  0
 18 26  2  0
  9  2  1  0
 26 14  1  0
 25 20  1  0
M  END
