
     RDKit          3D

  6  5  0  0  0  0  0  0  0  0999 V2000
   -2.1248    0.3817   -0.1182 C   0  0  0  0  0  0  0  0  0  0  0  0
   -0.9206   -0.1054    0.6749 C   0  0  0  0  0  0  0  0  0  0  0  0
    0.2722   -0.5174   -0.2088 C   0  0  2  0  0  0  0  0  0  0  0  0
    1.3814   -1.0973    0.6761 C   0  0  0  0  0  0  0  0  0  0  0  0
    0.8113    0.6293   -1.0764 C   0  0  0  0  0  0  0  0  0  0  0  0
    1.1460    1.7719   -0.3016 O   0  0  0  0  0  0  0  0  0  0  0  0
  1  2  1  0
  2  3  1  0
  3  4  1  1
  3  5  1  0
  5  6  1  0
M  END
