
     RDKit          3D

 21 21  0  0  0  0  0  0  0  0999 V2000
   -2.7020    3.5465   -1.0068 C   0  0  0  0  0  0  0  0  0  0  0  0
   -1.4477    2.7079   -0.8732 C   0  0  0  0  0  0  0  0  0  0  0  0
   -1.3235    2.2923    0.4765 O   0  0  0  0  0  0  0  0  0  0  0  0
   -0.3163    1.0814    0.8515 P   0  0  1  0  0  5  0  0  0  0  0  0
    0.2367    1.1070    2.7119 S   0  0  0  0  0  0  0  0  0  0  0  0
   -1.0642   -0.2978    0.3372 N   0  0  0  0  0  0  0  0  0  0  0  0
   -2.5126   -0.4755    0.4359 C   0  0  2  0  0  0  0  0  0  0  0  0
   -2.9663   -0.6976    1.8781 C   0  0  0  0  0  0  0  0  0  0  0  0
   -2.9571   -1.6275   -0.4885 C   0  0  0  0  0  0  0  0  0  0  0  0
   -2.4015   -3.0040   -0.1421 C   0  0  0  0  0  0  0  0  0  0  0  0
    0.8901    1.3344   -0.2115 O   0  0  0  0  0  0  0  0  0  0  0  0
    2.0595    0.6275   -0.1710 C   0  0  0  0  0  0  0  0  0  0  0  0
    2.0603   -0.6834   -0.6569 C   0  0  0  0  0  0  0  0  0  0  0  0
    3.2321   -1.4529   -0.6324 C   0  0  0  0  0  0  0  0  0  0  0  0
    3.2142   -2.8751   -1.1135 C   0  0  0  0  0  0  0  0  0  0  0  0
    4.4062   -0.8992   -0.1071 C   0  0  0  0  0  0  0  0  0  0  0  0
    4.4235    0.4208    0.3488 C   0  0  0  0  0  0  0  0  0  0  0  0
    3.2507    1.1887    0.3027 C   0  0  0  0  0  0  0  0  0  0  0  0
    3.3164    2.5822    0.7466 N   0  0  0  0  0  4  0  0  0  0  0  0
    4.1840    2.8717    1.5837 O   0  0  0  0  0  0  0  0  0  0  0  0
    2.5335    3.3960    0.2367 O   0  0  0  0  0  1  0  0  0  0  0  0
  1  2  1  0
  2  3  1  0
  3  4  1  0
  4  5  2  0
  4  6  1  6
  6  7  1  0
  7  8  1  1
  7  9  1  0
  9 10  1  0
  4 11  1  0
 11 12  1  0
 12 13  2  0
 13 14  1  0
 14 15  1  0
 14 16  2  0
 16 17  1  0
 17 18  2  0
 18 19  1  0
 19 20  2  0
 19 21  1  0
 18 12  1  0
M  CHG  2  19   1  21  -1
M  END
