
     RDKit          3D

 11 10  0  0  0  0  0  0  0  0999 V2000
   -2.3859   -1.0181    1.7959 C   0  0  0  0  0  0  0  0  0  0  0  0
   -2.1202    0.3221    1.1695 C   0  0  0  0  0  0  0  0  0  0  0  0
   -1.5841    0.5237   -0.0504 C   0  0  0  0  0  0  0  0  0  0  0  0
   -1.1058   -0.5062   -1.0347 C   0  0  0  0  0  0  0  0  0  0  0  0
    0.2602   -0.1957   -1.6735 C   0  0  0  0  0  0  0  0  0  0  0  0
    1.4761   -0.1123   -0.7237 C   0  0  1  0  0  0  0  0  0  0  0  0
    1.5653   -1.3070    0.2318 C   0  0  0  0  0  0  0  0  0  0  0  0
    2.7452   -0.0458   -1.5565 C   0  0  0  0  0  0  0  0  0  0  0  0
    3.5630    1.0077   -1.7002 C   0  0  0  0  0  0  0  0  0  0  0  0
    1.3744    1.0782    0.0559 O   0  0  0  0  0  0  0  0  0  0  0  0
   -2.5101    1.4942    2.0326 C   0  0  0  0  0  0  0  0  0  0  0  0
  1  2  1  0
  2  3  2  3
  3  4  1  0
  4  5  1  0
  5  6  1  0
  6  7  1  1
  6  8  1  0
  8  9  2  0
  6 10  1  0
  2 11  1  0
M  END
