
     RDKit          3D

 26 28  0  0  0  0  0  0  0  0999 V2000
   -3.7523    0.4986   -1.0536 C   0  0  0  0  0  0  0  0  0  0  0  0
   -4.2135   -0.8188   -0.4715 C   0  0  0  0  0  0  0  0  0  0  0  0
   -4.4628   -1.8724   -1.5238 C   0  0  0  0  0  0  0  0  0  0  0  0
   -5.1022   -0.8453    0.7618 C   0  0  2  0  0  0  0  0  0  0  0  0
   -5.5870    0.4107    1.3569 C   0  0  0  0  0  0  0  0  0  0  0  0
   -6.6378    1.1450    0.9571 C   0  0  0  0  0  0  0  0  0  0  0  0
   -7.6110    0.6960   -0.3963 Cl  0  0  0  0  0  0  0  0  0  0  0  0
   -7.0601    2.5943    1.7964 Cl  0  0  0  0  0  0  0  0  0  0  0  0
   -3.6586   -1.2906    0.8661 C   0  0  2  0  0  0  0  0  0  0  0  0
   -2.6228   -0.5374    1.6091 C   0  0  0  0  0  0  0  0  0  0  0  0
   -2.7660   -0.2085    2.7766 O   0  0  0  0  0  0  0  0  0  0  0  0
   -1.5169   -0.3342    0.8526 O   0  0  0  0  0  0  0  0  0  0  0  0
   -0.4775    0.3662    1.5360 C   0  0  0  0  0  0  0  0  0  0  0  0
    0.6861    0.4978    0.5891 C   0  0  0  0  0  0  0  0  0  0  0  0
    0.6658    1.4577   -0.4334 C   0  0  0  0  0  0  0  0  0  0  0  0
    1.7295    1.5594   -1.3321 C   0  0  0  0  0  0  0  0  0  0  0  0
    2.8247    0.7039   -1.2186 C   0  0  0  0  0  0  0  0  0  0  0  0
    2.8591   -0.2472   -0.1970 C   0  0  0  0  0  0  0  0  0  0  0  0
    3.8847   -1.1546   -0.0524 O   0  0  0  0  0  0  0  0  0  0  0  0
    5.1728   -0.6825   -0.1648 C   0  0  0  0  0  0  0  0  0  0  0  0
    6.0514   -1.4195   -0.9590 C   0  0  0  0  0  0  0  0  0  0  0  0
    7.3808   -1.0151   -1.0847 C   0  0  0  0  0  0  0  0  0  0  0  0
    7.8336    0.1161   -0.4051 C   0  0  0  0  0  0  0  0  0  0  0  0
    6.9593    0.8396    0.4076 C   0  0  0  0  0  0  0  0  0  0  0  0
    5.6292    0.4373    0.5353 C   0  0  0  0  0  0  0  0  0  0  0  0
    1.7868   -0.3648    0.6894 C   0  0  0  0  0  0  0  0  0  0  0  0
  1  2  1  0
  2  3  1  0
  2  4  1  0
  4  5  1  1
  5  6  2  3
  6  7  1  0
  6  8  1  0
  4  9  1  0
  9 10  1  1
 10 11  2  0
 10 12  1  0
 12 13  1  0
 13 14  1  0
 14 15  2  0
 15 16  1  0
 16 17  2  0
 17 18  1  0
 18 19  1  0
 19 20  1  0
 20 21  2  0
 21 22  1  0
 22 23  2  0
 23 24  1  0
 24 25  2  0
 18 26  2  0
  9  2  1  0
 26 14  1  0
 25 20  1  0
M  END
