
     RDKit          3D

 12 12  0  0  0  0  0  0  0  0999 V2000
    2.2655   -1.7581   -0.4541 C   0  0  0  0  0  0  0  0  0  0  0  0
    2.0112   -0.4553   -0.6500 C   0  0  0  0  0  0  0  0  0  0  0  0
    1.1301    0.4207    0.2240 C   0  0  1  0  0  0  0  0  0  0  0  0
    1.9996    0.8624    1.4183 C   0  0  0  0  0  0  0  0  0  0  0  0
    0.6555    1.6953   -0.5054 C   0  0  0  0  0  0  0  0  0  0  0  0
   -0.5571    1.4635   -1.3973 C   0  0  0  0  0  0  0  0  0  0  0  0
   -1.6612    0.7654   -0.6101 C   0  0  2  0  0  0  0  0  0  0  0  0
   -2.1231    1.6772    0.3961 O   0  0  0  0  0  0  0  0  0  0  0  0
   -1.1497   -0.5504    0.0251 C   0  0  0  0  0  0  0  0  0  0  0  0
   -2.1790   -1.0929    1.0353 C   0  0  0  0  0  0  0  0  0  0  0  0
   -0.9535   -1.6366   -1.0443 C   0  0  0  0  0  0  0  0  0  0  0  0
    0.0434   -0.3212    0.8018 O   0  0  0  0  0  0  0  0  0  0  0  0
  1  2  2  0
  2  3  1  0
  3  4  1  1
  3  5  1  0
  5  6  1  0
  6  7  1  0
  7  8  1  1
  7  9  1  0
  9 10  1  0
  9 11  1  0
  9 12  1  0
 12  3  1  0
M  END
