
     RDKit          3D

 10 10  0  0  0  0  0  0  0  0999 V2000
    3.6684    0.0143    0.0161 C   0  0  0  0  0  0  0  0  0  0  0  0
    2.1729   -0.1160    0.0238 C   0  0  0  0  0  0  0  0  0  0  0  0
    1.5390   -1.0291    0.7798 C   0  0  0  0  0  0  0  0  0  0  0  0
    0.0425   -1.1674    0.8316 C   0  0  0  0  0  0  0  0  0  0  0  0
   -0.7026    0.0757    0.2911 C   0  0  1  0  0  0  0  0  0  0  0  0
   -0.0636    0.4989   -1.0427 C   0  0  0  0  0  0  0  0  0  0  0  0
    1.4212    0.8406   -0.8681 C   0  0  0  0  0  0  0  0  0  0  0  0
   -2.2204   -0.0654    0.1647 C   0  0  0  0  0  0  0  0  0  0  0  0
   -2.8878   -1.2321    0.1339 C   0  0  0  0  0  0  0  0  0  0  0  0
   -2.9863    1.2343    0.1104 C   0  0  0  0  0  0  0  0  0  0  0  0
  1  2  1  0
  2  3  2  0
  3  4  1  0
  4  5  1  0
  5  6  1  0
  6  7  1  0
  5  8  1  6
  8  9  2  0
  8 10  1  0
  7  2  1  0
M  END
