
     RDKit          3D

  8  7  0  0  0  0  0  0  0  0999 V2000
    2.9193    0.5518    0.0727 C   0  0  0  0  0  0  0  0  0  0  0  0
    1.4311    0.3804   -0.2005 C   0  0  0  0  0  0  0  0  0  0  0  0
    0.7657   -0.4806    0.8720 C   0  0  0  0  0  0  0  0  0  0  0  0
   -0.6891   -0.8998    0.6154 C   0  0  1  0  0  0  0  0  0  0  0  0
   -1.7169    0.2344    0.3984 C   0  0  1  0  0  0  0  0  0  0  0  0
   -1.7968    0.8031   -1.0144 C   0  0  0  0  0  0  0  0  0  0  0  0
   -3.0223   -0.3011    0.6760 O   0  0  0  0  0  0  0  0  0  0  0  0
   -0.7683   -1.8546   -0.4489 O   0  0  0  0  0  0  0  0  0  0  0  0
  1  2  1  0
  2  3  1  0
  3  4  1  0
  4  5  1  0
  5  6  1  6
  5  7  1  0
  4  8  1  6
M  END
