
     RDKit          3D

 18 18  0  0  0  0  0  0  0  0999 V2000
   -3.7929    0.0275   -0.1529 C   0  0  0  0  0  0  0  0  0  0  0  0
   -2.5198    0.5336   -0.8154 C   0  0  0  0  0  0  0  0  0  0  0  0
   -1.7801    1.6048   -0.0166 C   0  0  0  0  0  0  0  0  0  0  0  0
   -1.2198    1.0903    1.6283 S   0  0  0  0  0  0  0  0  0  0  0  0
    0.0689   -0.5217    1.3165 P   0  0  1  0  0  5  0  0  0  0  0  0
    0.8648   -0.8334    2.5538 O   0  0  0  0  0  0  0  0  0  0  0  0
   -0.8069   -1.8002    0.8450 O   0  0  0  0  0  0  0  0  0  0  0  0
   -0.1381   -3.0473    0.7712 C   0  0  0  0  0  0  0  0  0  0  0  0
   -1.0702   -4.0568    0.1341 C   0  0  0  0  0  0  0  0  0  0  0  0
    0.9905   -0.2761    0.0136 O   0  0  0  0  0  0  0  0  0  0  0  0
    1.8887    0.7448   -0.1323 C   0  0  0  0  0  0  0  0  0  0  0  0
    2.5350    1.3437    0.9493 C   0  0  0  0  0  0  0  0  0  0  0  0
    3.4482    2.3797    0.7311 C   0  0  0  0  0  0  0  0  0  0  0  0
    3.7174    2.8101   -0.5671 C   0  0  0  0  0  0  0  0  0  0  0  0
    4.9530    4.2114   -0.8524 Br  0  0  0  0  0  0  0  0  0  0  0  0
    3.0852    2.2144   -1.6548 C   0  0  0  0  0  0  0  0  0  0  0  0
    2.1740    1.1806   -1.4340 C   0  0  0  0  0  0  0  0  0  0  0  0
    1.3886    0.4728   -2.8012 Cl  0  0  0  0  0  0  0  0  0  0  0  0
  1  2  1  0
  2  3  1  0
  3  4  1  0
  4  5  1  0
  5  6  2  0
  5  7  1  6
  7  8  1  0
  8  9  1  0
  5 10  1  0
 10 11  1  0
 11 12  2  0
 12 13  1  0
 13 14  2  0
 14 15  1  0
 14 16  1  0
 16 17  2  0
 17 18  1  0
 17 11  1  0
M  END
