
     RDKit          3D

 25 27  0  0  0  0  0  0  0  0999 V2000
   -2.9457    1.5923   -2.5666 C   0  0  0  0  0  0  0  0  0  0  0  0
   -3.7011    1.0888   -1.3674 C   0  0  0  0  0  0  0  0  0  0  0  0
   -3.0602    0.5391   -0.3171 C   0  0  0  0  0  0  0  0  0  0  0  0
   -3.6683    0.0026    0.9102 C   0  0  2  0  0  0  0  0  0  0  0  0
   -3.0637   -1.1551    1.6795 C   0  0  1  0  0  0  0  0  0  0  0  0
   -4.3520   -1.3576    0.8942 C   0  0  0  0  0  0  0  0  0  0  0  0
   -5.6285   -1.4968    1.6883 C   0  0  0  0  0  0  0  0  0  0  0  0
   -4.3381   -2.2105   -0.3547 C   0  0  0  0  0  0  0  0  0  0  0  0
   -1.7891   -1.8064    1.3021 C   0  0  0  0  0  0  0  0  0  0  0  0
   -1.7129   -2.9918    1.0128 O   0  0  0  0  0  0  0  0  0  0  0  0
   -0.7452   -0.9466    1.4128 O   0  0  0  0  0  0  0  0  0  0  0  0
    0.5196   -1.5422    1.1042 C   0  0  0  0  0  0  0  0  0  0  0  0
    1.6448   -0.5921    1.3430 C   0  0  0  0  0  0  0  0  0  0  0  0
    1.5733    0.7297    1.7341 C   0  0  0  0  0  0  0  0  0  0  0  0
    2.8103    1.2687    1.8585 O   0  0  0  0  0  0  0  0  0  0  0  0
    3.7060    0.2932    1.5377 C   0  0  0  0  0  0  0  0  0  0  0  0
    3.0367   -0.8677    1.2125 C   0  0  0  0  0  0  0  0  0  0  0  0
    5.1451    0.6600    1.6120 C   0  0  0  0  0  0  0  0  0  0  0  0
    5.7563    0.9286    0.2562 C   0  0  0  0  0  0  0  0  0  0  0  0
    5.4818    2.1285   -0.4181 C   0  0  0  0  0  0  0  0  0  0  0  0
    6.0465    2.3856   -1.6686 C   0  0  0  0  0  0  0  0  0  0  0  0
    6.8881    1.4458   -2.2597 C   0  0  0  0  0  0  0  0  0  0  0  0
    7.1607    0.2453   -1.6041 C   0  0  0  0  0  0  0  0  0  0  0  0
    6.5958   -0.0150   -0.3533 C   0  0  0  0  0  0  0  0  0  0  0  0
   -5.1942    1.2482   -1.4481 C   0  0  0  0  0  0  0  0  0  0  0  0
  1  2  1  0
  2  3  2  3
  4  3  1  6
  4  5  1  0
  5  6  1  0
  6  7  1  0
  6  8  1  0
  5  9  1  6
  9 10  2  0
  9 11  1  0
 11 12  1  0
 12 13  1  0
 13 14  2  0
 14 15  1  0
 15 16  1  0
 16 17  2  0
 16 18  1  0
 18 19  1  0
 19 20  2  0
 20 21  1  0
 21 22  2  0
 22 23  1  0
 23 24  2  0
  2 25  1  0
  6  4  1  0
 17 13  1  0
 24 19  1  0
M  END
