
     RDKit          3D

 19 20  0  0  0  0  0  0  0  0999 V2000
   -3.8810    1.2389   -1.8726 C   0  0  0  0  0  0  0  0  0  0  0  0
   -4.1150    0.9255   -0.4064 C   0  0  0  0  0  0  0  0  0  0  0  0
   -2.8816    0.9636    0.3050 O   0  0  0  0  0  0  0  0  0  0  0  0
   -2.3565   -0.3378    0.6026 C   0  0  1  0  0  0  0  0  0  0  0  0
   -2.0679   -1.0812   -0.6096 O   0  0  0  0  0  0  0  0  0  0  0  0
   -0.7259   -0.8882   -0.8045 C   0  0  0  0  0  0  0  0  0  0  0  0
   -0.0678   -1.1821   -1.9791 C   0  0  0  0  0  0  0  0  0  0  0  0
    1.3070   -0.9424   -2.0325 C   0  0  0  0  0  0  0  0  0  0  0  0
    1.9964   -0.4296   -0.9168 C   0  0  0  0  0  0  0  0  0  0  0  0
    3.3436   -0.2471   -1.1092 O   0  0  0  0  0  0  0  0  0  0  0  0
    4.3403    0.2498    0.0803 S   0  0  0  0  0  6  0  0  0  0  0  0
    5.8373    0.2027   -0.8715 C   0  0  0  0  0  0  0  0  0  0  0  0
    4.4269   -0.7737    1.1027 O   0  0  0  0  0  0  0  0  0  0  0  0
    4.0598    1.6338    0.4056 O   0  0  0  0  0  0  0  0  0  0  0  0
    1.3069   -0.1510    0.2672 C   0  0  0  0  0  0  0  0  0  0  0  0
   -0.0612   -0.3873    0.3050 C   0  0  0  0  0  0  0  0  0  0  0  0
   -1.0374   -0.2379    1.4306 C   0  0  0  0  0  0  0  0  0  0  0  0
   -0.8869    1.0703    2.2089 C   0  0  0  0  0  0  0  0  0  0  0  0
   -0.9031   -1.4385    2.3815 C   0  0  0  0  0  0  0  0  0  0  0  0
  1  2  1  0
  2  3  1  0
  4  3  1  6
  4  5  1  0
  5  6  1  0
  6  7  2  0
  7  8  1  0
  8  9  2  0
  9 10  1  0
 10 11  1  0
 11 12  1  0
 11 13  2  0
 11 14  2  0
  9 15  1  0
 15 16  2  0
 16 17  1  0
 17 18  1  0
 17 19  1  0
 17  4  1  0
 16  6  1  0
M  END
