
     RDKit          3D

  9  9  0  0  0  0  0  0  0  0999 V2000
    2.1273    1.0045   -0.3871 C   0  0  0  0  0  0  0  0  0  0  0  0
    1.4069   -0.3309   -0.2548 C   0  0  2  0  0  0  0  0  0  0  0  0
   -0.0347   -0.1791    0.1522 C   0  0  0  0  0  0  0  0  0  0  0  0
   -0.3898    0.3251    1.4012 C   0  0  0  0  0  0  0  0  0  0  0  0
   -1.6648    0.4830    1.8246 N   0  0  0  0  0  0  0  0  0  0  0  0
   -2.6395    0.1262    0.9627 C   0  0  0  0  0  0  0  0  0  0  0  0
   -2.3978   -0.3839   -0.3014 C   0  0  0  0  0  0  0  0  0  0  0  0
   -1.0756   -0.5382   -0.7098 C   0  0  0  0  0  0  0  0  0  0  0  0
    2.1009   -1.1337    0.6974 O   0  0  0  0  0  0  0  0  0  0  0  0
  2  1  1  1
  2  3  1  0
  3  4  2  0
  4  5  1  0
  5  6  2  0
  6  7  1  0
  7  8  2  0
  2  9  1  0
  8  3  1  0
M  END
