
     RDKit          3D

 13 12  0  0  0  0  0  0  0  0999 V2000
    3.5980    0.4388   -2.0068 C   0  0  0  0  0  0  0  0  0  0  0  0
    2.7752    0.4537   -0.7583 C   0  0  0  0  0  0  0  0  0  0  0  0
    2.6606   -0.6036    0.0586 C   0  0  0  0  0  0  0  0  0  0  0  0
    1.8611   -0.6626    1.3204 C   0  0  0  0  0  0  0  0  0  0  0  0
    1.9949   -1.6677    2.0228 O   0  0  0  0  0  0  0  0  0  0  0  0
    0.9345    0.5008    1.7139 C   0  0  2  0  0  0  0  0  0  0  0  0
    0.4221    0.3666    3.1491 C   0  0  0  0  0  0  0  0  0  0  0  0
   -0.2045    0.7396    0.7444 C   0  0  0  0  0  0  0  0  0  0  0  0
   -1.1139   -0.1232    0.2417 C   0  0  0  0  0  0  0  0  0  0  0  0
   -1.1941   -1.5830    0.6104 C   0  0  0  0  0  0  0  0  0  0  0  0
   -2.0975    0.3881   -0.7142 C   0  0  0  0  0  0  0  0  0  0  0  0
   -3.0382   -0.3265   -1.3529 C   0  0  0  0  0  0  0  0  0  0  0  0
   -4.0123    0.2646   -2.3214 C   0  0  0  0  0  0  0  0  0  0  0  0
  1  2  1  0
  2  3  2  0
  3  4  1  0
  4  5  2  0
  4  6  1  0
  6  7  1  1
  6  8  1  0
  8  9  2  0
  9 10  1  0
  9 11  1  0
 11 12  2  0
 12 13  1  0
M  END
