
     RDKit          3D

 14 14  0  0  0  0  0  0  0  0999 V2000
   -3.5285    2.0075    1.1869 C   0  0  0  0  0  0  0  0  0  0  0  0
   -3.1147    0.7223    0.4989 C   0  0  0  0  0  0  0  0  0  0  0  0
   -2.4385    1.0365   -0.7035 O   0  0  0  0  0  0  0  0  0  0  0  0
   -0.8381    0.8202   -0.9180 P   0  0  2  0  0  5  0  0  0  0  0  0
   -0.2561    1.9568   -2.4053 S   0  0  0  0  0  0  0  0  0  0  0  0
   -0.7877   -0.9442   -1.3907 C   0  0  0  0  0  0  0  0  0  0  0  0
   -1.3638   -1.9492   -0.4150 C   0  0  0  0  0  0  0  0  0  0  0  0
    0.1603    1.0266    0.9512 S   0  0  0  0  0  0  0  0  0  0  0  0
    1.7398    0.3497    0.4996 C   0  0  0  0  0  0  0  0  0  0  0  0
    2.6581    1.0975   -0.2417 C   0  0  0  0  0  0  0  0  0  0  0  0
    3.8966    0.5523   -0.5869 C   0  0  0  0  0  0  0  0  0  0  0  0
    4.2311   -0.7368   -0.1774 C   0  0  0  0  0  0  0  0  0  0  0  0
    3.3318   -1.4784    0.5856 C   0  0  0  0  0  0  0  0  0  0  0  0
    2.0925   -0.9341    0.9293 C   0  0  0  0  0  0  0  0  0  0  0  0
  1  2  1  0
  2  3  1  0
  3  4  1  0
  4  5  2  0
  4  6  1  6
  6  7  1  0
  4  8  1  0
  8  9  1  0
  9 10  2  0
 10 11  1  0
 11 12  2  0
 12 13  1  0
 13 14  2  0
 14  9  1  0
M  END
