
     RDKit          3D

 24 26  0  0  0  0  0  0  0  0999 V2000
   -5.1147   -0.8024    2.1627 C   0  0  0  0  0  0  0  0  0  0  0  0
   -3.7805   -1.4067    1.8276 C   0  0  0  0  0  0  0  0  0  0  0  0
   -3.7131   -2.9039    1.9569 C   0  0  0  0  0  0  0  0  0  0  0  0
   -2.7084   -0.6922    1.4332 C   0  0  0  0  0  0  0  0  0  0  0  0
   -2.6256    0.7638    1.2686 C   0  0  1  0  0  0  0  0  0  0  0  0
   -1.7161    1.4358    0.2654 C   0  0  1  0  0  0  0  0  0  0  0  0
   -0.8066    0.7552   -0.6905 C   0  0  0  0  0  0  0  0  0  0  0  0
   -0.7536   -0.4541   -0.8551 O   0  0  0  0  0  0  0  0  0  0  0  0
   -0.0557    1.6705   -1.3559 O   0  0  0  0  0  0  0  0  0  0  0  0
    0.8698    1.1236   -2.2990 C   0  0  0  0  0  0  0  0  0  0  0  0
    2.0260    0.5903   -1.6328 N   0  0  0  0  0  0  0  0  0  0  0  0
    2.8492    1.3130   -0.8300 C   0  0  0  0  0  0  0  0  0  0  0  0
    2.7499    2.4710   -0.4680 O   0  0  0  0  0  0  0  0  0  0  0  0
    3.9660    0.4330   -0.4822 C   0  0  0  0  0  0  0  0  0  0  0  0
    3.8228   -0.7029   -1.1694 C   0  0  0  0  0  0  0  0  0  0  0  0
    4.7559   -1.8526   -1.1218 C   0  0  0  0  0  0  0  0  0  0  0  0
    5.7386   -1.7039    0.0548 C   0  0  0  0  0  0  0  0  0  0  0  0
    6.2463   -0.2605    0.2187 C   0  0  0  0  0  0  0  0  0  0  0  0
    5.0986    0.7470    0.4189 C   0  0  0  0  0  0  0  0  0  0  0  0
    2.6075   -0.5887   -1.9771 C   0  0  0  0  0  0  0  0  0  0  0  0
    2.2690   -1.3934   -2.8268 O   0  0  0  0  0  0  0  0  0  0  0  0
   -3.2236    1.4451    0.0462 C   0  0  0  0  0  0  0  0  0  0  0  0
   -3.8216    0.6258   -1.0749 C   0  0  0  0  0  0  0  0  0  0  0  0
   -3.9440    2.7530    0.2671 C   0  0  0  0  0  0  0  0  0  0  0  0
  1  2  1  0
  2  3  1  0
  2  4  2  3
  5  4  1  6
  5  6  1  0
  6  7  1  6
  7  8  2  0
  7  9  1  0
  9 10  1  0
 10 11  1  0
 11 12  1  0
 12 13  2  0
 12 14  1  0
 14 15  2  0
 15 16  1  0
 16 17  1  0
 17 18  1  0
 18 19  1  0
 15 20  1  0
 20 21  2  0
  6 22  1  0
 22 23  1  0
 22 24  1  0
 22  5  1  0
 20 11  1  0
 19 14  1  0
M  END
