
     RDKit          3D

 10 11  0  0  0  0  0  0  0  0999 V2000
    2.2074   -0.6579    1.0909 C   0  0  0  0  0  0  0  0  0  0  0  0
    1.0306   -0.1293    0.2483 C   0  0  0  0  0  0  0  0  0  0  0  0
    0.2204   -1.2432   -0.5430 C   0  0  2  0  0  0  0  0  0  0  0  0
   -0.7372   -0.7164   -1.6286 C   0  0  0  0  0  0  0  0  0  0  0  0
   -1.7880    0.2511   -1.0379 C   0  0  0  0  0  0  0  0  0  0  0  0
   -1.3527    0.8419    0.2844 C   0  0  0  0  0  0  0  0  0  0  0  0
   -1.7679    2.0229    0.7601 C   0  0  0  0  0  0  0  0  0  0  0  0
   -0.3332    0.0397    1.0454 C   0  0  1  0  0  0  0  0  0  0  0  0
   -0.5426   -1.4962    0.7945 C   0  0  0  0  0  0  0  0  0  0  0  0
    1.5382    1.0722   -0.5591 C   0  0  0  0  0  0  0  0  0  0  0  0
  1  2  1  0
  2  3  1  0
  3  4  1  6
  4  5  1  0
  5  6  1  0
  6  7  2  0
  6  8  1  0
  8  9  1  6
  2 10  1  0
  8  2  1  0
  9  3  1  0
M  END
