
     RDKit          3D

 20 20  0  0  0  0  0  0  0  0999 V2000
   -2.3382    3.0578    0.1290 C   0  0  0  0  0  0  0  0  0  0  0  0
   -3.4086    2.1833    0.7632 C   0  0  0  0  0  0  0  0  0  0  0  0
   -3.0489    0.6961    0.7888 C   0  0  0  0  0  0  0  0  0  0  0  0
   -2.9511    0.0721   -0.6090 C   0  0  0  0  0  0  0  0  0  0  0  0
   -2.7207   -1.4588   -0.5581 C   0  0  1  0  0  0  0  0  0  0  0  0
   -4.0155   -2.2654   -0.7860 C   0  0  0  0  0  0  0  0  0  0  0  0
   -5.0934   -2.0310    0.2607 C   0  0  0  0  0  0  0  0  0  0  0  0
   -1.6835   -1.8831   -1.6172 C   0  0  0  0  0  0  0  0  0  0  0  0
   -0.4148   -1.2537   -1.3694 O   0  0  0  0  0  0  0  0  0  0  0  0
    0.3993   -1.8903   -0.4913 C   0  0  0  0  0  0  0  0  0  0  0  0
    0.1583   -2.9437    0.0769 O   0  0  0  0  0  0  0  0  0  0  0  0
    1.6574   -1.1215   -0.2967 C   0  0  0  0  0  0  0  0  0  0  0  0
    1.8831    0.1213   -0.8877 C   0  0  0  0  0  0  0  0  0  0  0  0
    3.0905    0.8022   -0.6637 C   0  0  0  0  0  0  0  0  0  0  0  0
    4.1091    0.2845    0.1580 C   0  0  0  0  0  0  0  0  0  0  0  0
    5.3158    0.9639    0.3592 N   0  0  0  0  0  0  0  0  0  0  0  0
    5.3780    2.3950    0.0652 C   0  0  0  0  0  0  0  0  0  0  0  0
    6.2394    0.4913    1.3892 C   0  0  0  0  0  0  0  0  0  0  0  0
    3.8546   -0.9767    0.7268 C   0  0  0  0  0  0  0  0  0  0  0  0
    2.6523   -1.6681    0.5131 C   0  0  0  0  0  0  0  0  0  0  0  0
  1  2  1  0
  2  3  1  0
  3  4  1  0
  5  4  1  6
  5  6  1  0
  6  7  1  0
  5  8  1  0
  8  9  1  0
  9 10  1  0
 10 11  2  0
 10 12  1  0
 12 13  2  0
 13 14  1  0
 14 15  2  0
 15 16  1  0
 16 17  1  0
 16 18  1  0
 15 19  1  0
 19 20  2  0
 20 12  1  0
M  END
