
     RDKit          3D

 25 27  0  0  0  0  0  0  0  0999 V2000
   -3.1063    0.2687    1.9046 C   0  0  0  0  0  0  0  0  0  0  0  0
   -3.5908    1.0564    0.6732 C   0  0  0  0  0  0  0  0  0  0  0  0
   -4.0508    2.4542    1.1550 C   0  0  0  0  0  0  0  0  0  0  0  0
   -4.8240    0.3464    0.0877 C   0  0  0  0  0  0  0  0  0  0  0  0
   -2.4338    1.2432   -0.3657 C   0  0  2  0  0  0  0  0  0  0  0  0
   -2.8933    2.0571   -1.4605 O   0  0  0  0  0  0  0  0  0  0  0  0
   -1.6814   -0.0390   -0.8476 C   0  0  2  0  0  0  0  0  0  0  0  0
   -0.4996    0.3405   -1.5796 O   0  0  0  0  0  0  0  0  0  0  0  0
    0.7021    0.1582   -0.9568 C   0  0  0  0  0  0  0  0  0  0  0  0
    0.9314    0.3076    0.4090 C   0  0  0  0  0  0  0  0  0  0  0  0
    2.2172    0.1109    0.9283 C   0  0  0  0  0  0  0  0  0  0  0  0
    3.2973   -0.2270    0.0962 C   0  0  0  0  0  0  0  0  0  0  0  0
    4.6470   -0.4316    0.6475 C   0  0  0  0  0  0  0  0  0  0  0  0
    5.3649   -1.6113    0.3868 C   0  0  0  0  0  0  0  0  0  0  0  0
    6.6465   -1.8066    0.9101 C   0  0  0  0  0  0  0  0  0  0  0  0
    7.2324   -0.8236    1.7042 C   0  0  0  0  0  0  0  0  0  0  0  0
    6.5379    0.3535    1.9763 C   0  0  0  0  0  0  0  0  0  0  0  0
    5.2566    0.5468    1.4522 C   0  0  0  0  0  0  0  0  0  0  0  0
    3.0503   -0.3509   -1.2791 C   0  0  0  0  0  0  0  0  0  0  0  0
    1.7682   -0.1511   -1.8000 C   0  0  0  0  0  0  0  0  0  0  0  0
   -2.4508   -0.8923   -1.7463 N   0  0  0  0  0  0  0  0  0  0  0  0
   -2.4584   -2.2549   -1.7733 C   0  0  0  0  0  0  0  0  0  0  0  0
   -3.2650   -2.6728   -2.7207 N   0  0  0  0  0  0  0  0  0  0  0  0
   -3.7136   -1.5106   -3.2801 C   0  0  0  0  0  0  0  0  0  0  0  0
   -3.2486   -0.3900   -2.7190 N   0  0  0  0  0  0  0  0  0  0  0  0
  1  2  1  0
  2  3  1  0
  2  4  1  0
  2  5  1  0
  5  6  1  6
  5  7  1  0
  7  8  1  6
  8  9  1  0
  9 10  2  0
 10 11  1  0
 11 12  2  0
 12 13  1  0
 13 14  2  0
 14 15  1  0
 15 16  2  0
 16 17  1  0
 17 18  2  0
 12 19  1  0
 19 20  2  0
  7 21  1  0
 21 22  1  0
 22 23  2  0
 23 24  1  0
 24 25  2  0
 20  9  1  0
 25 21  1  0
 18 13  1  0
M  END
