
     RDKit          3D

 20 21  0  0  0  0  0  0  0  0999 V2000
   -3.1143    1.0790   -0.0913 C   0  0  0  0  0  0  0  0  0  0  0  0
   -2.7208   -0.4032   -0.2371 C   0  0  0  0  0  0  0  0  0  0  0  0
   -3.8566   -1.0898   -1.0364 C   0  0  0  0  0  0  0  0  0  0  0  0
   -2.6841   -1.0352    1.1676 C   0  0  0  0  0  0  0  0  0  0  0  0
   -1.3616   -0.5856   -1.0111 C   0  0  2  0  0  0  0  0  0  0  0  0
   -1.2453   -1.9674   -1.4147 O   0  0  0  0  0  0  0  0  0  0  0  0
   -0.0366   -0.1831   -0.2930 C   0  0  1  0  0  0  0  0  0  0  0  0
    1.2039   -0.5852   -1.1353 C   0  0  0  0  0  0  0  0  0  0  0  0
    2.5019   -0.5044   -0.3571 C   0  0  0  0  0  0  0  0  0  0  0  0
    2.8986   -1.5634    0.4722 C   0  0  0  0  0  0  0  0  0  0  0  0
    4.0825   -1.4781    1.2080 C   0  0  0  0  0  0  0  0  0  0  0  0
    4.8727   -0.3339    1.1198 C   0  0  0  0  0  0  0  0  0  0  0  0
    6.3287   -0.2296    2.0304 Cl  0  0  0  0  0  0  0  0  0  0  0  0
    4.4903    0.7252    0.3004 C   0  0  0  0  0  0  0  0  0  0  0  0
    3.3084    0.6396   -0.4380 C   0  0  0  0  0  0  0  0  0  0  0  0
    0.0349    1.2294    0.0420 N   0  0  0  0  0  0  0  0  0  0  0  0
    0.3078    1.7813    1.2571 C   0  0  0  0  0  0  0  0  0  0  0  0
    0.3204    3.0899    1.1516 N   0  0  0  0  0  0  0  0  0  0  0  0
    0.0722    3.2942   -0.1751 C   0  0  0  0  0  0  0  0  0  0  0  0
   -0.1018    2.1850   -0.8988 N   0  0  0  0  0  0  0  0  0  0  0  0
  1  2  1  0
  2  3  1  0
  2  4  1  0
  2  5  1  0
  5  6  1  1
  5  7  1  0
  7  8  1  6
  8  9  1  0
  9 10  2  0
 10 11  1  0
 11 12  2  0
 12 13  1  0
 12 14  1  0
 14 15  2  0
  7 16  1  0
 16 17  1  0
 17 18  2  0
 18 19  1  0
 19 20  2  0
 15  9  1  0
 20 16  1  0
M  END
