
     RDKit          3D

 22 24  0  0  0  0  0  0  0  0999 V2000
   -2.4917   -3.1001    0.4131 C   0  0  0  0  0  0  0  0  0  0  0  0
   -1.3555   -2.2974   -0.2394 C   0  0  0  0  0  0  0  0  0  0  0  0
   -1.4662   -2.4667   -1.7710 C   0  0  0  0  0  0  0  0  0  0  0  0
    0.0093   -2.8350    0.2187 C   0  0  0  0  0  0  0  0  0  0  0  0
    0.9928   -1.6959   -0.0312 C   0  0  0  0  0  0  0  0  0  0  0  0
    0.1759   -0.3796   -0.0774 C   0  0  2  0  0  0  0  0  0  0  0  0
    0.7762    0.6824    0.8707 C   0  0  0  0  0  0  0  0  0  0  0  0
    2.0495    1.2992    0.3319 C   0  0  0  0  0  0  0  0  0  0  0  0
    1.9899    2.3977   -0.5380 C   0  0  0  0  0  0  0  0  0  0  0  0
    3.1597    2.9635   -1.0504 C   0  0  0  0  0  0  0  0  0  0  0  0
    4.3974    2.4353   -0.6939 C   0  0  0  0  0  0  0  0  0  0  0  0
    5.8391    3.1293   -1.3262 Cl  0  0  0  0  0  0  0  0  0  0  0  0
    4.4750    1.3502    0.1754 C   0  0  0  0  0  0  0  0  0  0  0  0
    3.3045    0.7858    0.6886 C   0  0  0  0  0  0  0  0  0  0  0  0
   -1.2922   -0.7997    0.2393 C   0  0  2  0  0  0  0  0  0  0  0  0
   -1.5060   -0.7643    1.6585 O   0  0  0  0  0  0  0  0  0  0  0  0
   -2.3941    0.0685   -0.4238 C   0  0  0  0  0  0  0  0  0  0  0  0
   -2.2405    1.5034   -0.3120 N   0  0  0  0  0  0  0  0  0  0  0  0
   -1.7769    2.3544   -1.2700 C   0  0  0  0  0  0  0  0  0  0  0  0
   -1.8345    3.5891   -0.8288 N   0  0  0  0  0  0  0  0  0  0  0  0
   -2.3996    3.4434    0.4067 C   0  0  0  0  0  0  0  0  0  0  0  0
   -2.6851    2.1873    0.7570 N   0  0  0  0  0  0  0  0  0  0  0  0
  1  2  1  0
  2  3  1  0
  2  4  1  0
  4  5  1  0
  5  6  1  0
  6  7  1  1
  7  8  1  0
  8  9  2  0
  9 10  1  0
 10 11  2  0
 11 12  1  0
 11 13  1  0
 13 14  2  0
  6 15  1  0
 15 16  1  1
 15 17  1  0
 17 18  1  0
 18 19  1  0
 19 20  2  0
 20 21  1  0
 21 22  2  0
 15  2  1  0
 22 18  1  0
 14  8  1  0
M  END
