
     RDKit          3D

 24 26  0  0  0  0  0  0  0  0999 V2000
    4.8387    2.3455   -0.6361 C   0  0  0  0  0  0  0  0  0  0  0  0
    4.0413    1.0711   -0.6752 C   0  0  0  0  0  0  0  0  0  0  0  0
    4.2342    0.2418   -1.9140 C   0  0  0  0  0  0  0  0  0  0  0  0
    3.2221    0.7254    0.3371 C   0  0  0  0  0  0  0  0  0  0  0  0
    2.3865   -0.4805    0.4286 C   0  0  2  0  0  0  0  0  0  0  0  0
    2.0613   -1.0449    1.7975 C   0  0  1  0  0  0  0  0  0  0  0  0
    0.7115   -1.5616    2.1206 C   0  0  0  0  0  0  0  0  0  0  0  0
    0.5478   -2.5235    2.8563 O   0  0  0  0  0  0  0  0  0  0  0  0
   -0.2691   -0.8348    1.5316 O   0  0  0  0  0  0  0  0  0  0  0  0
   -1.5694   -1.3518    1.7999 C   0  0  0  0  0  0  0  0  0  0  0  0
   -2.5140   -0.5647    1.0579 N   0  0  0  0  0  0  0  0  0  0  0  0
   -2.8495   -0.7950   -0.2364 C   0  0  0  0  0  0  0  0  0  0  0  0
   -2.4742   -1.6833   -0.9784 O   0  0  0  0  0  0  0  0  0  0  0  0
   -3.7935    0.2593   -0.6129 C   0  0  0  0  0  0  0  0  0  0  0  0
   -3.9584    1.0602    0.4419 C   0  0  0  0  0  0  0  0  0  0  0  0
   -4.8415    2.2484    0.4784 C   0  0  0  0  0  0  0  0  0  0  0  0
   -5.7858    2.2609   -0.7374 C   0  0  0  0  0  0  0  0  0  0  0  0
   -5.0769    1.8408   -2.0356 C   0  0  0  0  0  0  0  0  0  0  0  0
   -4.4418    0.4428   -1.9321 C   0  0  0  0  0  0  0  0  0  0  0  0
   -3.1348    0.5426    1.5366 C   0  0  0  0  0  0  0  0  0  0  0  0
   -3.0630    1.0431    2.6427 O   0  0  0  0  0  0  0  0  0  0  0  0
    2.9847   -1.8105    0.8585 C   0  0  0  0  0  0  0  0  0  0  0  0
    2.4751   -3.0452    0.1533 C   0  0  0  0  0  0  0  0  0  0  0  0
    4.4375   -1.9114    1.2593 C   0  0  0  0  0  0  0  0  0  0  0  0
  1  2  1  0
  2  3  1  0
  2  4  2  3
  5  4  1  1
  5  6  1  0
  6  7  1  6
  7  8  2  0
  7  9  1  0
  9 10  1  0
 10 11  1  0
 11 12  1  0
 12 13  2  0
 12 14  1  0
 14 15  2  0
 15 16  1  0
 16 17  1  0
 17 18  1  0
 18 19  1  0
 15 20  1  0
 20 21  2  0
  6 22  1  0
 22 23  1  0
 22 24  1  0
 22  5  1  0
 20 11  1  0
 19 14  1  0
M  END
