
     RDKit          3D

 17 16  0  0  0  0  0  0  0  0999 V2000
   -6.4741   -0.1004   -0.0652 C   0  0  0  0  0  0  0  0  0  0  0  0
   -5.4210    0.7504    0.5761 C   0  0  0  0  0  0  0  0  0  0  0  0
   -5.6530    1.6806    1.3345 O   0  0  0  0  0  0  0  0  0  0  0  0
   -4.1868    0.3304    0.1853 O   0  0  0  0  0  0  0  0  0  0  0  0
   -3.0648    1.0584    0.7216 C   0  0  2  0  0  0  0  0  0  0  0  0
   -2.8213    2.3118   -0.1146 C   0  0  0  0  0  0  0  0  0  0  0  0
   -1.8508    0.1169    0.7471 C   0  0  0  0  0  0  0  0  0  0  0  0
   -1.4570   -0.4442   -0.6249 C   0  0  0  0  0  0  0  0  0  0  0  0
   -0.3019   -1.4016   -0.4948 C   0  0  0  0  0  0  0  0  0  0  0  0
    0.9445   -1.2686   -0.9932 C   0  0  0  0  0  0  0  0  0  0  0  0
    1.3970   -0.1126   -1.8442 C   0  0  0  0  0  0  0  0  0  0  0  0
    1.9855   -2.3458   -0.7343 C   0  0  0  0  0  0  0  0  0  0  0  0
    2.9587   -2.0215    0.4094 C   0  0  0  0  0  0  0  0  0  0  0  0
    4.0328   -1.0356    0.0318 C   0  0  0  0  0  0  0  0  0  0  0  0
    4.2468    0.1951    0.5375 C   0  0  0  0  0  0  0  0  0  0  0  0
    3.3994    0.8645    1.5842 C   0  0  0  0  0  0  0  0  0  0  0  0
    5.4019    1.0320    0.0521 C   0  0  0  0  0  0  0  0  0  0  0  0
  1  2  1  0
  2  3  2  0
  2  4  1  0
  4  5  1  0
  5  6  1  6
  5  7  1  0
  7  8  1  0
  8  9  1  0
  9 10  2  0
 10 11  1  0
 10 12  1  0
 12 13  1  0
 13 14  1  0
 14 15  2  3
 15 16  1  0
 15 17  1  0
M  END
