
     RDKit          3D

 20 21  0  0  0  0  0  0  0  0999 V2000
   -1.5326   -0.9596    1.5177 C   0  0  0  0  0  0  0  0  0  0  0  0
   -1.8793   -0.6651    0.0524 C   0  0  0  0  0  0  0  0  0  0  0  0
   -3.1142    0.2574    0.0207 C   0  0  0  0  0  0  0  0  0  0  0  0
   -2.3147   -2.0046   -0.5988 C   0  0  0  0  0  0  0  0  0  0  0  0
   -0.6569   -0.1156   -0.7649 C   0  0  1  0  0  0  0  0  0  0  0  0
   -1.1051    0.1966   -2.1016 O   0  0  0  0  0  0  0  0  0  0  0  0
    0.2200    1.0702   -0.2524 C   0  0  2  0  0  0  0  0  0  0  0  0
    1.2573    0.7191    0.8402 C   0  0  0  0  0  0  0  0  0  0  0  0
    2.2731   -0.3320    0.4489 C   0  0  0  0  0  0  0  0  0  0  0  0
    2.3890   -1.5165    1.1912 C   0  0  0  0  0  0  0  0  0  0  0  0
    3.3278   -2.4887    0.8367 C   0  0  0  0  0  0  0  0  0  0  0  0
    4.1633   -2.2793   -0.2570 C   0  0  0  0  0  0  0  0  0  0  0  0
    5.3198   -3.4760   -0.6918 Cl  0  0  0  0  0  0  0  0  0  0  0  0
    4.0713   -1.1032   -0.9959 C   0  0  0  0  0  0  0  0  0  0  0  0
    3.1329   -0.1305   -0.6416 C   0  0  0  0  0  0  0  0  0  0  0  0
   -0.5673    2.2570    0.0619 N   0  0  0  0  0  0  0  0  0  0  0  0
   -0.7504    2.8986    1.2475 C   0  0  0  0  0  0  0  0  0  0  0  0
   -1.5071    3.9559    1.0654 N   0  0  0  0  0  0  0  0  0  0  0  0
   -1.7656    3.9260   -0.2734 C   0  0  0  0  0  0  0  0  0  0  0  0
   -1.2190    2.9011   -0.9331 N   0  0  0  0  0  0  0  0  0  0  0  0
  1  2  1  0
  2  3  1  0
  2  4  1  0
  2  5  1  0
  5  6  1  6
  5  7  1  0
  7  8  1  1
  8  9  1  0
  9 10  2  0
 10 11  1  0
 11 12  2  0
 12 13  1  0
 12 14  1  0
 14 15  2  0
  7 16  1  0
 16 17  1  0
 17 18  2  0
 18 19  1  0
 19 20  2  0
 15  9  1  0
 20 16  1  0
M  END
