
     RDKit          3D

 11 11  0  0  0  0  0  0  0  0999 V2000
    1.9683    0.9440    1.1286 C   0  0  0  0  0  0  0  0  0  0  0  0
    1.6357   -0.1395    0.1089 C   0  0  2  0  0  0  0  0  0  0  0  0
    0.1687   -0.1566   -0.2299 C   0  0  0  0  0  0  0  0  0  0  0  0
   -0.7864   -0.7158    0.6218 C   0  0  0  0  0  0  0  0  0  0  0  0
   -2.1453   -0.7088    0.3089 C   0  0  0  0  0  0  0  0  0  0  0  0
   -2.5783   -0.1246   -0.8796 C   0  0  0  0  0  0  0  0  0  0  0  0
   -1.6458    0.4506   -1.7407 C   0  0  0  0  0  0  0  0  0  0  0  0
   -0.2908    0.4332   -1.4096 C   0  0  0  0  0  0  0  0  0  0  0  0
    0.5787    1.0112   -2.2507 F   0  0  0  0  0  0  0  0  0  0  0  0
   -0.3962   -1.2774    1.7764 F   0  0  0  0  0  0  0  0  0  0  0  0
    2.0657   -1.4011    0.6210 O   0  0  0  0  0  0  0  0  0  0  0  0
  2  1  1  1
  2  3  1  0
  3  4  2  0
  4  5  1  0
  5  6  2  0
  6  7  1  0
  7  8  2  0
  8  9  1  0
  4 10  1  0
  2 11  1  0
  8  3  1  0
M  END
