
     RDKit          3D

 26 28  0  0  0  0  0  0  0  0999 V2000
   -3.4846    1.2691    2.1549 C   0  0  0  0  0  0  0  0  0  0  0  0
   -3.5566    0.8284    0.7115 C   0  0  0  0  0  0  0  0  0  0  0  0
   -4.9245    0.3270    0.3133 C   0  0  0  0  0  0  0  0  0  0  0  0
   -2.6800    1.5784   -0.2788 C   0  0  2  0  0  0  0  0  0  0  0  0
   -3.1743    1.8950   -1.6286 C   0  0  0  0  0  0  0  0  0  0  0  0
   -3.9348    2.9397   -1.9897 C   0  0  0  0  0  0  0  0  0  0  0  0
   -4.4774    4.1190   -0.8521 Cl  0  0  0  0  0  0  0  0  0  0  0  0
   -4.4091    3.1424   -3.6391 Cl  0  0  0  0  0  0  0  0  0  0  0  0
   -2.3587    0.1387    0.0712 C   0  0  1  0  0  0  0  0  0  0  0  0
   -1.1505   -0.1953    0.8657 C   0  0  0  0  0  0  0  0  0  0  0  0
   -0.3211    0.6414    1.1884 O   0  0  0  0  0  0  0  0  0  0  0  0
   -1.1280   -1.5174    1.1698 O   0  0  0  0  0  0  0  0  0  0  0  0
    0.0230   -1.9569    1.8994 C   0  0  0  0  0  0  0  0  0  0  0  0
    1.0583   -2.4789    0.9374 C   0  0  0  0  0  0  0  0  0  0  0  0
    0.9045   -3.7397    0.3417 C   0  0  0  0  0  0  0  0  0  0  0  0
    1.8606   -4.2218   -0.5533 C   0  0  0  0  0  0  0  0  0  0  0  0
    2.9717   -3.4423   -0.8726 C   0  0  0  0  0  0  0  0  0  0  0  0
    3.1188   -2.1728   -0.3119 C   0  0  0  0  0  0  0  0  0  0  0  0
    4.2568   -1.4775   -0.6590 O   0  0  0  0  0  0  0  0  0  0  0  0
    4.1442   -0.1156   -0.8195 C   0  0  0  0  0  0  0  0  0  0  0  0
    3.2217    0.4548   -1.7004 C   0  0  0  0  0  0  0  0  0  0  0  0
    3.1697    1.8420   -1.8433 C   0  0  0  0  0  0  0  0  0  0  0  0
    4.0480    2.6518   -1.1201 C   0  0  0  0  0  0  0  0  0  0  0  0
    4.9840    2.0768   -0.2586 C   0  0  0  0  0  0  0  0  0  0  0  0
    5.0387    0.6901   -0.1142 C   0  0  0  0  0  0  0  0  0  0  0  0
    2.1733   -1.6969    0.6019 C   0  0  0  0  0  0  0  0  0  0  0  0
  1  2  1  0
  2  3  1  0
  2  4  1  0
  4  5  1  6
  5  6  2  3
  6  7  1  0
  6  8  1  0
  4  9  1  0
  9 10  1  1
 10 11  2  0
 10 12  1  0
 12 13  1  0
 13 14  1  0
 14 15  2  0
 15 16  1  0
 16 17  2  0
 17 18  1  0
 18 19  1  0
 19 20  1  0
 20 21  2  0
 21 22  1  0
 22 23  2  0
 23 24  1  0
 24 25  2  0
 18 26  2  0
  9  2  1  0
 26 14  1  0
 25 20  1  0
M  END
