
     RDKit          3D

 10 10  0  0  0  0  0  0  0  0999 V2000
    3.5740   -0.3020   -0.8382 C   0  0  0  0  0  0  0  0  0  0  0  0
    2.1343   -0.0601   -0.4884 C   0  0  0  0  0  0  0  0  0  0  0  0
    1.7709    0.7320    0.5352 C   0  0  0  0  0  0  0  0  0  0  0  0
    0.3397    0.9731    0.9289 C   0  0  0  0  0  0  0  0  0  0  0  0
   -0.6364   -0.0769    0.3481 C   0  0  2  0  0  0  0  0  0  0  0  0
   -0.3233   -0.2766   -1.1447 C   0  0  0  0  0  0  0  0  0  0  0  0
    1.1167   -0.7603   -1.3544 C   0  0  0  0  0  0  0  0  0  0  0  0
   -2.1226    0.2038    0.5757 C   0  0  0  0  0  0  0  0  0  0  0  0
   -2.6423    1.4018    0.8955 C   0  0  0  0  0  0  0  0  0  0  0  0
   -3.0309   -0.9961    0.4566 C   0  0  0  0  0  0  0  0  0  0  0  0
  1  2  1  0
  2  3  2  0
  3  4  1  0
  4  5  1  0
  5  6  1  0
  6  7  1  0
  5  8  1  6
  8  9  2  0
  8 10  1  0
  7  2  1  0
M  END
