
     RDKit          3D

 12 13  0  0  0  0  0  0  0  0999 V2000
   -1.3122   -1.4605    0.5494 C   0  0  0  0  0  0  0  0  0  0  0  0
   -1.1441   -0.0710    0.9917 N   0  0  0  0  0  0  0  0  0  0  0  0
   -2.4159    0.6614    0.8611 C   0  0  0  0  0  0  0  0  0  0  0  0
   -2.4569    1.2097   -0.5610 C   0  0  0  0  0  0  0  0  0  0  0  0
   -1.0330    1.0731   -1.0878 C   0  0  0  0  0  0  0  0  0  0  0  0
   -0.2032    0.7134    0.1485 C   0  0  2  0  0  0  0  0  0  0  0  0
    1.1641    0.1061   -0.0568 C   0  0  0  0  0  0  0  0  0  0  0  0
    1.7680   -0.0174   -1.3046 C   0  0  0  0  0  0  0  0  0  0  0  0
    3.0053   -0.5289   -1.5133 N   0  0  0  0  0  0  0  0  0  0  0  0
    3.6884   -0.9318   -0.4220 C   0  0  0  0  0  0  0  0  0  0  0  0
    3.1958   -0.8421    0.8669 C   0  0  0  0  0  0  0  0  0  0  0  0
    1.9221   -0.3111    1.0470 C   0  0  0  0  0  0  0  0  0  0  0  0
  1  2  1  0
  2  3  1  0
  3  4  1  0
  4  5  1  0
  5  6  1  0
  6  7  1  6
  7  8  2  0
  8  9  1  0
  9 10  2  0
 10 11  1  0
 11 12  2  0
  6  2  1  0
 12  7  1  0
M  END
