
     RDKit          3D

 10 10  0  0  0  0  0  0  0  0999 V2000
   -3.1354   -0.7169    0.9622 C   0  0  0  0  0  0  0  0  0  0  0  0
   -1.7165   -0.8528    0.4248 C   0  0  0  0  0  0  0  0  0  0  0  0
   -0.9507    0.4741    0.4736 C   0  0  1  0  0  0  0  0  0  0  0  0
    0.4984    0.3163    0.0609 C   0  0  0  0  0  0  0  0  0  0  0  0
    0.8424    0.0016   -1.2635 C   0  0  0  0  0  0  0  0  0  0  0  0
    2.1795   -0.1418   -1.6365 C   0  0  0  0  0  0  0  0  0  0  0  0
    3.1887    0.0265   -0.6910 C   0  0  0  0  0  0  0  0  0  0  0  0
    2.8619    0.3378    0.6274 C   0  0  0  0  0  0  0  0  0  0  0  0
    1.5246    0.4818    1.0025 C   0  0  0  0  0  0  0  0  0  0  0  0
   -1.5895    1.4285   -0.3747 O   0  0  0  0  0  0  0  0  0  0  0  0
  1  2  1  0
  2  3  1  0
  3  4  1  0
  4  5  2  0
  5  6  1  0
  6  7  2  0
  7  8  1  0
  8  9  2  0
  3 10  1  6
  9  4  1  0
M  END
