
     RDKit          3D

 18 18  0  0  0  0  0  0  0  0999 V2000
   -4.7118   -1.4226    1.3110 C   0  0  0  0  0  0  0  0  0  0  0  0
   -3.6143   -1.6942    0.3028 C   0  0  0  0  0  0  0  0  0  0  0  0
   -3.1057   -0.4515   -0.1531 O   0  0  0  0  0  0  0  0  0  0  0  0
   -1.6865   -0.4416   -0.9377 P   0  0  0  0  0  5  0  0  0  0  0  0
   -1.6415   -1.4582   -2.5878 S   0  0  0  0  0  0  0  0  0  0  0  0
   -1.4334    1.1499   -1.1042 O   0  0  0  0  0  0  0  0  0  0  0  0
   -1.5549    2.0023    0.0221 C   0  0  0  0  0  0  0  0  0  0  0  0
   -2.7128    2.9531   -0.2017 C   0  0  0  0  0  0  0  0  0  0  0  0
   -0.6600   -0.8589    0.2381 O   0  0  0  0  0  0  0  0  0  0  0  0
    0.7033   -0.7981    0.1853 C   0  0  0  0  0  0  0  0  0  0  0  0
    1.3728   -1.3250    1.2905 C   0  0  0  0  0  0  0  0  0  0  0  0
    2.7684   -1.3088    1.3447 C   0  0  0  0  0  0  0  0  0  0  0  0
    3.5063   -0.7580    0.2940 C   0  0  0  0  0  0  0  0  0  0  0  0
    5.3137   -0.7400    0.3380 S   0  0  0  0  0  4  0  0  0  0  0  0
    5.5184    1.0354    0.6323 C   0  0  0  0  0  0  0  0  0  0  0  0
    5.7026   -1.4470    1.6037 O   0  0  0  0  0  0  0  0  0  0  0  0
    2.8312   -0.2352   -0.8143 C   0  0  0  0  0  0  0  0  0  0  0  0
    1.4326   -0.2491   -0.8661 C   0  0  0  0  0  0  0  0  0  0  0  0
  1  2  1  0
  2  3  1  0
  3  4  1  0
  4  5  2  0
  4  6  1  0
  6  7  1  0
  7  8  1  0
  4  9  1  0
  9 10  1  0
 10 11  2  0
 11 12  1  0
 12 13  2  0
 13 14  1  0
 14 15  1  1
 14 16  2  0
 13 17  1  0
 17 18  2  0
 18 10  1  0
M  END
