
     RDKit          3D

 26 28  0  0  0  0  0  0  0  0999 V2000
   -6.0366   -0.3806    0.2143 C   0  0  0  0  0  0  0  0  0  0  0  0
   -4.8102   -0.9259   -0.4785 C   0  0  0  0  0  0  0  0  0  0  0  0
   -4.9776   -2.3538   -0.9430 C   0  0  0  0  0  0  0  0  0  0  0  0
   -3.9167   -0.0275   -1.3208 C   0  0  1  0  0  0  0  0  0  0  0  0
   -4.2637    1.3848   -1.5467 C   0  0  0  0  0  0  0  0  0  0  0  0
   -3.4320    2.4374   -1.5879 C   0  0  0  0  0  0  0  0  0  0  0  0
   -4.0509    4.0230   -1.8871 Cl  0  0  0  0  0  0  0  0  0  0  0  0
   -1.7293    2.2770   -1.3591 Cl  0  0  0  0  0  0  0  0  0  0  0  0
   -3.4611   -0.4675    0.0565 C   0  0  2  0  0  0  0  0  0  0  0  0
   -2.3402   -1.4218    0.2309 C   0  0  0  0  0  0  0  0  0  0  0  0
   -2.3444   -2.2542    1.1249 O   0  0  0  0  0  0  0  0  0  0  0  0
   -1.3593   -1.2177   -0.6821 O   0  0  0  0  0  0  0  0  0  0  0  0
   -0.1922   -2.0283   -0.5229 C   0  0  0  0  0  0  0  0  0  0  0  0
    0.8379   -1.2699    0.2714 C   0  0  0  0  0  0  0  0  0  0  0  0
    1.0142   -1.5268    1.6384 C   0  0  0  0  0  0  0  0  0  0  0  0
    1.9465   -0.8004    2.3819 C   0  0  0  0  0  0  0  0  0  0  0  0
    2.7121    0.1900    1.7674 C   0  0  0  0  0  0  0  0  0  0  0  0
    2.5490    0.4457    0.4046 C   0  0  0  0  0  0  0  0  0  0  0  0
    3.2408    1.4383   -0.2517 O   0  0  0  0  0  0  0  0  0  0  0  0
    4.6028    1.4914   -0.0597 C   0  0  0  0  0  0  0  0  0  0  0  0
    5.1609    2.7496    0.1676 C   0  0  0  0  0  0  0  0  0  0  0  0
    6.5395    2.8781    0.3387 C   0  0  0  0  0  0  0  0  0  0  0  0
    7.3591    1.7512    0.2665 C   0  0  0  0  0  0  0  0  0  0  0  0
    6.8028    0.4966    0.0152 C   0  0  0  0  0  0  0  0  0  0  0  0
    5.4240    0.3652   -0.1562 C   0  0  0  0  0  0  0  0  0  0  0  0
    1.6012   -0.2625   -0.3357 C   0  0  0  0  0  0  0  0  0  0  0  0
  1  2  1  0
  2  3  1  0
  2  4  1  0
  4  5  1  1
  5  6  2  3
  6  7  1  0
  6  8  1  0
  4  9  1  0
  9 10  1  6
 10 11  2  0
 10 12  1  0
 12 13  1  0
 13 14  1  0
 14 15  2  0
 15 16  1  0
 16 17  2  0
 17 18  1  0
 18 19  1  0
 19 20  1  0
 20 21  2  0
 21 22  1  0
 22 23  2  0
 23 24  1  0
 24 25  2  0
 18 26  2  0
  9  2  1  0
 26 14  1  0
 25 20  1  0
M  END
