
     RDKit          3D

 19 20  0  0  0  0  0  0  0  0999 V2000
   -0.1797   -2.1892   -1.2799 O   0  0  0  0  0  0  0  0  0  0  0  0
   -0.9278   -1.3552   -0.7925 C   0  0  0  0  0  0  0  0  0  0  0  0
   -2.4435   -1.4648   -0.7716 C   0  0  2  0  0  0  0  0  0  0  0  0
   -3.0781   -2.0681   -2.3110 Cl  0  0  0  0  0  0  0  0  0  0  0  0
   -2.8838   -0.0286   -0.5129 C   0  0  1  0  0  0  0  0  0  0  0  0
   -4.2960    0.1367    0.0312 C   0  0  0  0  0  0  0  0  0  0  0  0
   -4.5647   -0.6823    1.5869 Cl  0  0  0  0  0  0  0  0  0  0  0  0
   -1.7766    0.4907    0.3915 C   0  0  0  0  0  0  0  0  0  0  0  0
   -0.5871   -0.1760   -0.0944 N   0  0  0  0  0  0  0  0  0  0  0  0
    0.7265    0.2676    0.2252 C   0  0  0  0  0  0  0  0  0  0  0  0
    0.9236    1.3274    1.1245 C   0  0  0  0  0  0  0  0  0  0  0  0
    2.2072    1.7759    1.4521 C   0  0  0  0  0  0  0  0  0  0  0  0
    3.3242    1.1744    0.8822 C   0  0  0  0  0  0  0  0  0  0  0  0
    3.1654    0.1219   -0.0254 C   0  0  0  0  0  0  0  0  0  0  0  0
    4.3620   -0.5544   -0.6488 C   0  0  0  0  0  0  0  0  0  0  0  0
    4.2222   -0.7505   -1.9890 F   0  0  0  0  0  0  0  0  0  0  0  0
    4.6073   -1.7800   -0.1099 F   0  0  0  0  0  0  0  0  0  0  0  0
    5.5175    0.1543   -0.4997 F   0  0  0  0  0  0  0  0  0  0  0  0
    1.8655   -0.3228   -0.3392 C   0  0  0  0  0  0  0  0  0  0  0  0
  1  2  2  0
  2  3  1  0
  3  4  1  6
  3  5  1  0
  5  6  1  1
  6  7  1  0
  5  8  1  0
  8  9  1  0
  9 10  1  0
 10 11  2  0
 11 12  1  0
 12 13  2  0
 13 14  1  0
 14 15  1  0
 15 16  1  0
 15 17  1  0
 15 18  1  0
 14 19  2  0
  9  2  1  0
 19 10  1  0
M  END
