
     RDKit          3D

 26 28  0  0  0  0  0  0  0  0999 V2000
   -3.3755    1.6213    2.0102 C   0  0  0  0  0  0  0  0  0  0  0  0
   -4.0131    0.7941    0.9176 C   0  0  0  0  0  0  0  0  0  0  0  0
   -5.5205    0.8879    0.9065 C   0  0  0  0  0  0  0  0  0  0  0  0
   -3.2241    0.6353   -0.3733 C   0  0  2  0  0  0  0  0  0  0  0  0
   -3.8983    0.6473   -1.6817 C   0  0  0  0  0  0  0  0  0  0  0  0
   -3.5997   -0.0893   -2.7634 C   0  0  0  0  0  0  0  0  0  0  0  0
   -4.5084    0.1031   -4.2215 Cl  0  0  0  0  0  0  0  0  0  0  0  0
   -2.3207   -1.2493   -2.7692 Cl  0  0  0  0  0  0  0  0  0  0  0  0
   -3.4098   -0.5540    0.5494 C   0  0  1  0  0  0  0  0  0  0  0  0
   -2.2622   -1.1178    1.2997 C   0  0  0  0  0  0  0  0  0  0  0  0
   -2.3711   -1.5074    2.4518 O   0  0  0  0  0  0  0  0  0  0  0  0
   -1.1440   -1.1606    0.5416 O   0  0  0  0  0  0  0  0  0  0  0  0
   -0.0166   -1.7450    1.1921 C   0  0  0  0  0  0  0  0  0  0  0  0
    1.0468   -1.9463    0.1438 C   0  0  0  0  0  0  0  0  0  0  0  0
    1.2601   -3.2118   -0.4227 C   0  0  0  0  0  0  0  0  0  0  0  0
    2.2041   -3.3857   -1.4365 C   0  0  0  0  0  0  0  0  0  0  0  0
    2.9417   -2.2969   -1.8967 C   0  0  0  0  0  0  0  0  0  0  0  0
    2.7462   -1.0383   -1.3312 C   0  0  0  0  0  0  0  0  0  0  0  0
    3.4602    0.0089   -1.8665 O   0  0  0  0  0  0  0  0  0  0  0  0
    4.1250    0.8320   -0.9860 C   0  0  0  0  0  0  0  0  0  0  0  0
    4.0508    2.2034   -1.2303 C   0  0  0  0  0  0  0  0  0  0  0  0
    4.7325    3.0978   -0.4024 C   0  0  0  0  0  0  0  0  0  0  0  0
    5.4992    2.6173    0.6596 C   0  0  0  0  0  0  0  0  0  0  0  0
    5.5925    1.2446    0.8890 C   0  0  0  0  0  0  0  0  0  0  0  0
    4.9093    0.3484    0.0636 C   0  0  0  0  0  0  0  0  0  0  0  0
    1.7924   -0.8552   -0.3267 C   0  0  0  0  0  0  0  0  0  0  0  0
  1  2  1  0
  2  3  1  0
  2  4  1  0
  4  5  1  6
  5  6  2  3
  6  7  1  0
  6  8  1  0
  4  9  1  0
  9 10  1  1
 10 11  2  0
 10 12  1  0
 12 13  1  0
 13 14  1  0
 14 15  2  0
 15 16  1  0
 16 17  2  0
 17 18  1  0
 18 19  1  0
 19 20  1  0
 20 21  2  0
 21 22  1  0
 22 23  2  0
 23 24  1  0
 24 25  2  0
 18 26  2  0
  9  2  1  0
 26 14  1  0
 25 20  1  0
M  END
