
     RDKit          3D

 26 28  0  0  0  0  0  0  0  0999 V2000
    3.2879    0.5602   -2.3396 C   0  0  0  0  0  0  0  0  0  0  0  0
    3.8331   -0.5594   -1.4797 C   0  0  0  0  0  0  0  0  0  0  0  0
    4.0100   -1.8516   -2.2389 C   0  0  0  0  0  0  0  0  0  0  0  0
    3.3913   -0.6677   -0.0254 C   0  0  2  0  0  0  0  0  0  0  0  0
    2.3403    0.2240    0.5262 C   0  0  0  0  0  0  0  0  0  0  0  0
    2.4928    1.4187    0.7310 O   0  0  0  0  0  0  0  0  0  0  0  0
    1.2012   -0.4757    0.7638 O   0  0  0  0  0  0  0  0  0  0  0  0
    0.1461    0.3197    1.3129 C   0  0  0  0  0  0  0  0  0  0  0  0
   -1.0481   -0.5540    1.6146 C   0  0  0  0  0  0  0  0  0  0  0  0
   -0.8915   -1.8439    2.1450 C   0  0  0  0  0  0  0  0  0  0  0  0
   -2.0045   -2.6221    2.4699 C   0  0  0  0  0  0  0  0  0  0  0  0
   -3.2881   -2.1174    2.2748 C   0  0  0  0  0  0  0  0  0  0  0  0
   -3.4601   -0.8385    1.7442 C   0  0  0  0  0  0  0  0  0  0  0  0
   -4.7568   -0.3898    1.6282 O   0  0  0  0  0  0  0  0  0  0  0  0
   -5.0740    0.3504    0.5138 C   0  0  0  0  0  0  0  0  0  0  0  0
   -4.8364   -0.1162   -0.7801 C   0  0  0  0  0  0  0  0  0  0  0  0
   -5.2091    0.6650   -1.8739 C   0  0  0  0  0  0  0  0  0  0  0  0
   -5.8305    1.8978   -1.6738 C   0  0  0  0  0  0  0  0  0  0  0  0
   -6.0918    2.3487   -0.3783 C   0  0  0  0  0  0  0  0  0  0  0  0
   -5.7195    1.5701    0.7169 C   0  0  0  0  0  0  0  0  0  0  0  0
   -2.3464   -0.0501    1.4353 C   0  0  0  0  0  0  0  0  0  0  0  0
    4.8148   -0.2722   -0.3522 C   0  0  2  0  0  0  0  0  0  0  0  0
    5.3485    1.0836   -0.1550 C   0  0  0  0  0  0  0  0  0  0  0  0
    6.3607    1.6627   -0.8205 C   0  0  0  0  0  0  0  0  0  0  0  0
    7.2263    0.8462   -2.0748 Cl  0  0  0  0  0  0  0  0  0  0  0  0
    6.8597    3.2720   -0.4325 Cl  0  0  0  0  0  0  0  0  0  0  0  0
  1  2  1  0
  2  3  1  0
  2  4  1  0
  4  5  1  6
  5  6  2  0
  5  7  1  0
  7  8  1  0
  8  9  1  0
  9 10  2  0
 10 11  1  0
 11 12  2  0
 12 13  1  0
 13 14  1  0
 14 15  1  0
 15 16  2  0
 16 17  1  0
 17 18  2  0
 18 19  1  0
 19 20  2  0
 13 21  2  0
  4 22  1  0
 22 23  1  6
 23 24  2  3
 24 25  1  0
 24 26  1  0
 22  2  1  0
 21  9  1  0
 20 15  1  0
M  END
