
     RDKit          3D

 18 18  0  0  0  0  0  0  0  0999 V2000
   -5.4041   -1.2610   -2.8348 C   0  0  0  0  0  0  0  0  0  0  0  0
   -4.0272   -0.6337   -2.9843 C   0  0  0  0  0  0  0  0  0  0  0  0
   -3.1320   -0.9538   -1.7856 C   0  0  0  0  0  0  0  0  0  0  0  0
   -1.7443   -0.3247   -1.9472 C   0  0  0  0  0  0  0  0  0  0  0  0
   -0.8404   -0.4642   -0.7001 C   0  0  1  0  0  0  0  0  0  0  0  0
   -0.5380   -1.9500   -0.3951 C   0  0  0  0  0  0  0  0  0  0  0  0
    0.3436   -2.1934    0.8215 C   0  0  0  0  0  0  0  0  0  0  0  0
    0.4399    0.3654   -0.9226 C   0  0  0  0  0  0  0  0  0  0  0  0
    1.0726    0.6206    0.3396 O   0  0  0  0  0  0  0  0  0  0  0  0
    2.2477    1.2881    0.2549 C   0  0  0  0  0  0  0  0  0  0  0  0
    2.7816    1.6799   -0.7743 O   0  0  0  0  0  0  0  0  0  0  0  0
    2.8517    1.5037    1.5938 C   0  0  0  0  0  0  0  0  0  0  0  0
    2.2222    1.0540    2.7652 C   0  0  0  0  0  0  0  0  0  0  0  0
    2.8149    1.2696    4.0125 C   0  0  0  0  0  0  0  0  0  0  0  0
    4.0373    1.9343    4.1001 C   0  0  0  0  0  0  0  0  0  0  0  0
    4.6704    2.3853    2.9425 C   0  0  0  0  0  0  0  0  0  0  0  0
    4.0816    2.1717    1.6968 C   0  0  0  0  0  0  0  0  0  0  0  0
    4.7769    2.6500    0.6169 O   0  0  0  0  0  0  0  0  0  0  0  0
  1  2  1  0
  2  3  1  0
  3  4  1  0
  5  4  1  6
  5  6  1  0
  6  7  1  0
  5  8  1  0
  8  9  1  0
  9 10  1  0
 10 11  2  0
 10 12  1  0
 12 13  2  0
 13 14  1  0
 14 15  2  0
 15 16  1  0
 16 17  2  0
 17 18  1  0
 17 12  1  0
M  END
