
     RDKit          3D

 10 11  0  0  0  0  0  0  0  0999 V2000
    2.1401   -0.7247    0.2337 C   0  0  0  0  0  0  0  0  0  0  0  0
    0.8034   -0.2005   -0.3228 C   0  0  0  0  0  0  0  0  0  0  0  0
   -0.3594   -1.2037   -0.0201 C   0  0  2  0  0  0  0  0  0  0  0  0
   -1.6785   -0.7957   -0.7150 C   0  0  0  0  0  0  0  0  0  0  0  0
   -2.0823    0.4880    0.0336 C   0  0  0  0  0  0  0  0  0  0  0  0
   -1.0078    0.5999    1.1281 C   0  0  1  0  0  0  0  0  0  0  0  0
   -0.7184   -0.8676    1.4362 C   0  0  0  0  0  0  0  0  0  0  0  0
    0.2946    1.0070    0.4613 C   0  0  0  0  0  0  0  0  0  0  0  0
    0.8857    2.2015    0.5869 C   0  0  0  0  0  0  0  0  0  0  0  0
    0.9796    0.0961   -1.8185 C   0  0  0  0  0  0  0  0  0  0  0  0
  1  2  1  0
  2  3  1  0
  3  4  1  6
  4  5  1  0
  6  5  1  6
  6  7  1  0
  6  8  1  0
  8  9  2  0
  2 10  1  0
  8  2  1  0
  7  3  1  0
M  END
