
     RDKit          3D

 11 10  0  0  0  0  0  0  0  0999 V2000
   -2.2169    2.2447   -0.0080 C   0  0  0  0  0  0  0  0  0  0  0  0
   -1.3902    1.3717   -0.9417 C   0  0  0  0  0  0  0  0  0  0  0  0
   -0.3517    0.4718   -0.2249 C   0  0  2  0  0  0  0  0  0  0  0  0
    0.4673   -0.2718   -1.3052 C   0  0  0  0  0  0  0  0  0  0  0  0
    1.8512   -0.6927   -0.8697 C   0  0  0  0  0  0  0  0  0  0  0  0
    2.2673   -1.8419   -0.9353 O   0  0  0  0  0  0  0  0  0  0  0  0
    2.5757    0.3792   -0.4475 O   0  0  0  0  0  0  0  0  0  0  0  0
    3.9032    0.0556   -0.0330 C   0  0  0  0  0  0  0  0  0  0  0  0
   -0.9901   -0.4558    0.8558 C   0  0  0  0  0  0  0  0  0  0  0  0
   -2.0441   -1.4245    0.3107 C   0  0  0  0  0  0  0  0  0  0  0  0
    0.0521   -1.2372    1.6618 C   0  0  0  0  0  0  0  0  0  0  0  0
  1  2  1  0
  3  2  1  6
  3  4  1  0
  4  5  1  0
  5  6  2  0
  5  7  1  0
  7  8  1  0
  3  9  1  0
  9 10  1  0
  9 11  1  0
M  END
