
     RDKit          3D

 18 18  0  0  0  0  0  0  0  0999 V2000
    3.4523    1.2135    1.5227 C   0  0  0  0  0  0  0  0  0  0  0  0
    3.2218    2.1083    0.3120 C   0  0  0  0  0  0  0  0  0  0  0  0
    2.3439    1.4723   -0.7644 C   0  0  0  0  0  0  0  0  0  0  0  0
    0.6252    1.2693   -0.2237 S   0  0  0  0  0  0  0  0  0  0  0  0
   -0.2946    0.0940   -1.7285 P   0  0  1  0  0  5  0  0  0  0  0  0
    0.3009    0.3025   -3.5780 S   0  0  0  0  0  0  0  0  0  0  0  0
   -0.2075   -1.4596   -1.2412 O   0  0  0  0  0  0  0  0  0  0  0  0
    1.0579   -2.0714   -1.0622 C   0  0  0  0  0  0  0  0  0  0  0  0
    0.8493   -3.5634   -0.9004 C   0  0  0  0  0  0  0  0  0  0  0  0
   -1.9100    0.3125   -1.6371 O   0  0  0  0  0  0  0  0  0  0  0  0
   -2.5763    0.3444   -0.4433 C   0  0  0  0  0  0  0  0  0  0  0  0
   -2.8406   -0.8463    0.2322 C   0  0  0  0  0  0  0  0  0  0  0  0
   -3.5386   -0.8145    1.4407 C   0  0  0  0  0  0  0  0  0  0  0  0
   -3.9803    0.4044    1.9566 C   0  0  0  0  0  0  0  0  0  0  0  0
   -4.8393    0.4357    3.4469 Cl  0  0  0  0  0  0  0  0  0  0  0  0
   -3.7400    1.5945    1.2727 C   0  0  0  0  0  0  0  0  0  0  0  0
   -3.0430    1.5615    0.0652 C   0  0  0  0  0  0  0  0  0  0  0  0
   -2.7713    3.0430   -0.7765 Cl  0  0  0  0  0  0  0  0  0  0  0  0
  1  2  1  0
  2  3  1  0
  3  4  1  0
  4  5  1  0
  5  6  2  0
  5  7  1  1
  7  8  1  0
  8  9  1  0
  5 10  1  0
 10 11  1  0
 11 12  2  0
 12 13  1  0
 13 14  2  0
 14 15  1  0
 14 16  1  0
 16 17  2  0
 17 18  1  0
 17 11  1  0
M  END
