
     RDKit          3D

 21 21  0  0  0  0  0  0  0  0999 V2000
    2.0040    3.2884   -1.7475 C   0  0  0  0  0  0  0  0  0  0  0  0
    1.9635    2.0303   -2.6031 C   0  0  0  0  0  0  0  0  0  0  0  0
    2.5589    0.8262   -1.8842 C   0  0  0  0  0  0  0  0  0  0  0  0
    1.7886    0.5525   -0.7234 O   0  0  0  0  0  0  0  0  0  0  0  0
    2.4150   -0.3722    0.4622 P   0  0  0  0  0  5  0  0  0  0  0  0
    3.8690    0.5260    1.3962 S   0  0  0  0  0  0  0  0  0  0  0  0
    2.9021   -1.6411   -0.4242 O   0  0  0  0  0  0  0  0  0  0  0  0
    3.4759   -2.7657    0.2252 C   0  0  0  0  0  0  0  0  0  0  0  0
    2.7256   -4.0159   -0.2158 C   0  0  0  0  0  0  0  0  0  0  0  0
    3.3283   -5.2747    0.3841 C   0  0  0  0  0  0  0  0  0  0  0  0
    0.7378   -0.9973    1.5555 S   0  0  0  0  0  0  0  0  0  0  0  0
    0.0193    0.5753    2.1035 C   0  0  0  0  0  0  0  0  0  0  0  0
   -1.5034    0.4979    2.1031 C   0  0  0  0  0  0  0  0  0  0  0  0
   -2.0818   -0.1543    2.9701 O   0  0  0  0  0  0  0  0  0  0  0  0
   -2.1813    1.2274    1.1221 N   0  0  0  0  0  0  0  0  0  0  0  0
   -1.5791    1.4427   -0.2019 C   0  0  0  0  0  0  0  0  0  0  0  0
   -2.5720    1.2244   -1.3532 C   0  0  0  0  0  0  0  0  0  0  0  0
   -3.5145    0.0596   -1.0447 C   0  0  0  0  0  0  0  0  0  0  0  0
   -4.2836    0.2735    0.2685 C   0  0  0  0  0  0  0  0  0  0  0  0
   -3.6478    1.3641    1.1420 C   0  0  1  0  0  0  0  0  0  0  0  0
   -4.3125    1.4645    2.5150 C   0  0  0  0  0  0  0  0  0  0  0  0
  1  2  1  0
  2  3  1  0
  3  4  1  0
  4  5  1  0
  5  6  2  0
  5  7  1  0
  7  8  1  0
  8  9  1  0
  9 10  1  0
  5 11  1  0
 11 12  1  0
 12 13  1  0
 13 14  2  0
 13 15  1  0
 15 16  1  0
 16 17  1  0
 17 18  1  0
 18 19  1  0
 19 20  1  0
 20 21  1  1
 20 15  1  0
M  END
