
     RDKit          3D

 19 18  0  0  0  0  0  0  0  0999 V2000
    3.8080   -3.4160   -0.5813 C   0  0  0  0  0  0  0  0  0  0  0  0
    3.9695   -2.1427    0.2276 C   0  0  0  0  0  0  0  0  0  0  0  0
    2.6895   -1.6827    0.6864 O   0  0  0  0  0  0  0  0  0  0  0  0
    2.0054   -0.8795   -0.1739 C   0  0  0  0  0  0  0  0  0  0  0  0
    2.3788   -0.5505   -1.2902 O   0  0  0  0  0  0  0  0  0  0  0  0
    0.6880   -0.4822    0.4453 C   0  0  0  0  0  0  0  0  0  0  0  0
   -0.0021    0.5834   -0.4053 C   0  0  1  0  0  0  0  0  0  0  0  0
   -1.6490    1.0098    0.2803 S   0  0  0  0  0  0  0  0  0  0  0  0
   -2.8152   -0.7205    0.0148 P   0  0  0  0  0  5  0  0  0  0  0  0
   -2.6990   -1.6492   -1.6947 S   0  0  0  0  0  0  0  0  0  0  0  0
   -4.3352   -0.2930    0.4054 O   0  0  0  0  0  0  0  0  0  0  0  0
   -5.3593   -1.2698    0.3847 C   0  0  0  0  0  0  0  0  0  0  0  0
   -2.4704   -1.7245    1.2477 O   0  0  0  0  0  0  0  0  0  0  0  0
   -2.5291   -1.2516    2.5797 C   0  0  0  0  0  0  0  0  0  0  0  0
    0.8306    1.8578   -0.4294 C   0  0  0  0  0  0  0  0  0  0  0  0
    1.5880    2.2075    0.4682 O   0  0  0  0  0  0  0  0  0  0  0  0
    0.5877    2.5611   -1.5720 O   0  0  0  0  0  0  0  0  0  0  0  0
    1.3119    3.7908   -1.7165 C   0  0  0  0  0  0  0  0  0  0  0  0
    0.5563    4.9230   -1.0467 C   0  0  0  0  0  0  0  0  0  0  0  0
  1  2  1  0
  2  3  1  0
  3  4  1  0
  4  5  2  0
  4  6  1  0
  7  6  1  1
  7  8  1  0
  8  9  1  0
  9 10  2  0
  9 11  1  0
 11 12  1  0
  9 13  1  0
 13 14  1  0
  7 15  1  0
 15 16  2  0
 15 17  1  0
 17 18  1  0
 18 19  1  0
M  END
