
     RDKit          3D

 11 11  0  0  0  0  0  0  0  0999 V2000
   -0.7419   -0.8475   -1.9487 O   0  0  0  0  0  0  0  0  0  0  0  0
   -0.6258   -0.7012   -0.5300 C   0  0  1  0  0  0  0  0  0  0  0  0
    0.7900   -0.2628   -0.2094 C   0  0  0  0  0  0  0  0  0  0  0  0
    1.3213    0.9177   -0.7528 C   0  0  0  0  0  0  0  0  0  0  0  0
    2.6267    1.3125   -0.4568 C   0  0  0  0  0  0  0  0  0  0  0  0
    3.4172    0.5320    0.3838 C   0  0  0  0  0  0  0  0  0  0  0  0
    2.9041   -0.6438    0.9278 C   0  0  0  0  0  0  0  0  0  0  0  0
    1.5985   -1.0406    0.6326 C   0  0  0  0  0  0  0  0  0  0  0  0
   -1.7203    0.2654   -0.0210 C   0  0  0  0  0  0  0  0  0  0  0  0
   -3.1146   -0.2133   -0.4457 C   0  0  0  0  0  0  0  0  0  0  0  0
   -1.6808    0.4251    1.5019 C   0  0  0  0  0  0  0  0  0  0  0  0
  2  1  1  6
  2  3  1  0
  3  4  2  0
  4  5  1  0
  5  6  2  0
  6  7  1  0
  7  8  2  0
  2  9  1  0
  9 10  1  0
  9 11  1  0
  8  3  1  0
M  END
