
     RDKit          3D

 21 22  0  0  0  0  0  0  0  0999 V2000
   -3.9355   -0.5113   -0.8763 C   0  0  0  0  0  0  0  0  0  0  0  0
   -2.5386   -0.7240   -0.2480 C   0  0  0  0  0  0  0  0  0  0  0  0
   -2.7394   -0.9198    1.2689 C   0  0  0  0  0  0  0  0  0  0  0  0
   -1.9528   -2.0147   -0.8425 C   0  0  0  0  0  0  0  0  0  0  0  0
   -1.6377    0.5290   -0.5266 C   0  0  2  0  0  0  0  0  0  0  0  0
   -1.5946    0.8105   -1.9324 O   0  0  0  0  0  0  0  0  0  0  0  0
   -0.1779    0.4566    0.0157 C   0  0  1  0  0  0  0  0  0  0  0  0
    0.8603   -0.0629   -1.0077 C   0  0  0  0  0  0  0  0  0  0  0  0
    2.2022   -0.4120   -0.3858 C   0  0  0  0  0  0  0  0  0  0  0  0
    2.2827   -1.5577    0.4285 C   0  0  0  0  0  0  0  0  0  0  0  0
    3.4838   -1.9205    1.0409 C   0  0  0  0  0  0  0  0  0  0  0  0
    4.6209   -1.1442    0.8444 C   0  0  0  0  0  0  0  0  0  0  0  0
    6.1010   -1.5927    1.5980 Cl  0  0  0  0  0  0  0  0  0  0  0  0
    4.5698   -0.0118    0.0383 C   0  0  0  0  0  0  0  0  0  0  0  0
    3.3676    0.3524   -0.5762 C   0  0  0  0  0  0  0  0  0  0  0  0
    3.3954    1.7595   -1.5776 Cl  0  0  0  0  0  0  0  0  0  0  0  0
    0.2063    1.7757    0.5253 N   0  0  0  0  0  0  0  0  0  0  0  0
    0.3376    2.9458   -0.1588 C   0  0  0  0  0  0  0  0  0  0  0  0
    0.6234    3.9150    0.6796 N   0  0  0  0  0  0  0  0  0  0  0  0
    0.6560    3.2772    1.8859 C   0  0  0  0  0  0  0  0  0  0  0  0
    0.3850    1.9699    1.8476 N   0  0  0  0  0  0  0  0  0  0  0  0
  1  2  1  0
  2  3  1  0
  2  4  1  0
  2  5  1  0
  5  6  1  6
  5  7  1  0
  7  8  1  6
  8  9  1  0
  9 10  2  0
 10 11  1  0
 11 12  2  0
 12 13  1  0
 12 14  1  0
 14 15  2  0
 15 16  1  0
  7 17  1  0
 17 18  1  0
 18 19  2  0
 19 20  1  0
 20 21  2  0
 15  9  1  0
 21 17  1  0
M  END
