
     RDKit          3D

 11 11  0  0  0  0  0  0  0  0999 V2000
   -0.8167    1.4784   -1.0125 O   0  0  0  0  0  0  0  0  0  0  0  0
   -0.5260    0.8845    0.2585 C   0  0  2  0  0  0  0  0  0  0  0  0
    0.8732    0.2834    0.2262 C   0  0  0  0  0  0  0  0  0  0  0  0
    1.1890   -0.9838    0.7365 C   0  0  0  0  0  0  0  0  0  0  0  0
    2.5006   -1.4684    0.6977 C   0  0  0  0  0  0  0  0  0  0  0  0
    3.5221   -0.6897    0.1612 C   0  0  0  0  0  0  0  0  0  0  0  0
    3.2359    0.5789   -0.3316 C   0  0  0  0  0  0  0  0  0  0  0  0
    1.9264    1.0618   -0.2932 C   0  0  0  0  0  0  0  0  0  0  0  0
   -1.7093   -0.0384    0.6485 C   0  0  0  0  0  0  0  0  0  0  0  0
   -2.9651    0.7999    0.9297 C   0  0  0  0  0  0  0  0  0  0  0  0
   -2.0462   -1.0750   -0.4313 C   0  0  0  0  0  0  0  0  0  0  0  0
  2  1  1  6
  2  3  1  0
  3  4  2  0
  4  5  1  0
  5  6  2  0
  6  7  1  0
  7  8  2  0
  2  9  1  0
  9 10  1  0
  9 11  1  0
  8  3  1  0
M  END
