
     RDKit          3D

 10 11  0  0  0  0  0  0  0  0999 V2000
    2.2712   -0.5675    0.9974 C   0  0  0  0  0  0  0  0  0  0  0  0
    1.0430   -0.0841    0.2023 C   0  0  0  0  0  0  0  0  0  0  0  0
    0.2584   -1.2247   -0.5765 C   0  0  2  0  0  0  0  0  0  0  0  0
   -0.7591   -0.7299   -1.6219 C   0  0  0  0  0  0  0  0  0  0  0  0
   -1.8325    0.1803   -0.9828 C   0  0  0  0  0  0  0  0  0  0  0  0
   -1.3799    0.7745    0.3320 C   0  0  0  0  0  0  0  0  0  0  0  0
   -1.8326    1.9291    0.8377 C   0  0  0  0  0  0  0  0  0  0  0  0
   -0.2989    0.0115    1.0471 C   0  0  1  0  0  0  0  0  0  0  0  0
   -0.4457   -1.5293    0.7823 C   0  0  0  0  0  0  0  0  0  0  0  0
    1.4667    1.1496   -0.6052 C   0  0  0  0  0  0  0  0  0  0  0  0
  1  2  1  0
  2  3  1  0
  3  4  1  6
  4  5  1  0
  5  6  1  0
  6  7  2  0
  6  8  1  0
  8  9  1  6
  2 10  1  0
  8  2  1  0
  9  3  1  0
M  END
