
     RDKit          3D

 17 16  0  0  0  0  0  0  0  0999 V2000
    6.4544    1.4630   -1.8397 C   0  0  0  0  0  0  0  0  0  0  0  0
    5.4831    0.3401   -1.6408 C   0  0  0  0  0  0  0  0  0  0  0  0
    5.1127   -0.4163   -2.5272 O   0  0  0  0  0  0  0  0  0  0  0  0
    5.0923    0.2917   -0.3373 O   0  0  0  0  0  0  0  0  0  0  0  0
    4.1520   -0.7485    0.0096 C   0  0  1  0  0  0  0  0  0  0  0  0
    4.3657   -1.0415    1.4921 C   0  0  0  0  0  0  0  0  0  0  0  0
    2.7304   -0.2547   -0.2972 C   0  0  0  0  0  0  0  0  0  0  0  0
    1.6531   -1.3007   -0.0124 C   0  0  0  0  0  0  0  0  0  0  0  0
    0.2985   -0.8247   -0.4613 C   0  0  0  0  0  0  0  0  0  0  0  0
   -0.6679   -0.2684    0.2978 C   0  0  0  0  0  0  0  0  0  0  0  0
   -0.5201    0.0499    1.7615 C   0  0  0  0  0  0  0  0  0  0  0  0
   -1.9926    0.1371   -0.3264 C   0  0  0  0  0  0  0  0  0  0  0  0
   -3.1729   -0.6910    0.1949 C   0  0  0  0  0  0  0  0  0  0  0  0
   -4.4455   -0.3652   -0.5402 C   0  0  0  0  0  0  0  0  0  0  0  0
   -5.4312    0.4642   -0.1443 C   0  0  0  0  0  0  0  0  0  0  0  0
   -6.6658    0.6477   -0.9874 C   0  0  0  0  0  0  0  0  0  0  0  0
   -5.4145    1.2810    1.1182 C   0  0  0  0  0  0  0  0  0  0  0  0
  1  2  1  0
  2  3  2  0
  2  4  1  0
  4  5  1  0
  5  6  1  1
  5  7  1  0
  7  8  1  0
  8  9  1  0
  9 10  2  0
 10 11  1  0
 10 12  1  0
 12 13  1  0
 13 14  1  0
 14 15  2  3
 15 16  1  0
 15 17  1  0
M  END
