
     RDKit          3D

 18 19  0  0  0  0  0  0  0  0999 V2000
   -3.2524   -0.4519    1.5653 C   0  0  0  0  0  0  0  0  0  0  0  0
   -3.1622   -0.6932    0.2495 C   0  0  0  0  0  0  0  0  0  0  0  0
   -2.1620   -0.1279   -0.7288 C   0  0  2  0  0  0  0  0  0  0  0  0
   -2.8241    0.8203   -1.7231 C   0  0  0  0  0  0  0  0  0  0  0  0
   -1.6059   -1.2245   -1.4495 O   0  0  0  0  0  0  0  0  0  0  0  0
   -0.2700   -1.3101   -1.1858 C   0  0  0  0  0  0  0  0  0  0  0  0
    0.3866   -2.2281   -1.6536 O   0  0  0  0  0  0  0  0  0  0  0  0
    0.1433   -0.2852   -0.3832 N   0  0  0  0  0  0  0  0  0  0  0  0
    1.4847   -0.0620    0.0686 C   0  0  0  0  0  0  0  0  0  0  0  0
    1.7758    0.8912    1.0610 C   0  0  0  0  0  0  0  0  0  0  0  0
    3.0863    1.1066    1.5055 C   0  0  0  0  0  0  0  0  0  0  0  0
    3.3885    2.2802    2.7289 Cl  0  0  0  0  0  0  0  0  0  0  0  0
    4.1449    0.3828    0.9782 C   0  0  0  0  0  0  0  0  0  0  0  0
    3.8797   -0.5637   -0.0000 C   0  0  0  0  0  0  0  0  0  0  0  0
    5.1791   -1.4713   -0.6733 Cl  0  0  0  0  0  0  0  0  0  0  0  0
    2.5721   -0.7875   -0.4496 C   0  0  0  0  0  0  0  0  0  0  0  0
   -0.9322    0.5213   -0.1124 C   0  0  0  0  0  0  0  0  0  0  0  0
   -0.9578    1.5940    0.4796 O   0  0  0  0  0  0  0  0  0  0  0  0
  1  2  2  0
  2  3  1  0
  3  4  1  6
  3  5  1  0
  5  6  1  0
  6  7  2  0
  6  8  1  0
  8  9  1  0
  9 10  2  0
 10 11  1  0
 11 12  1  0
 11 13  2  0
 13 14  1  0
 14 15  1  0
 14 16  2  0
  8 17  1  0
 17 18  2  0
 17  3  1  0
 16  9  1  0
M  END
