
     RDKit          3D

 15 16  0  0  0  0  0  0  0  0999 V2000
    2.5911   -2.6981   -0.6441 C   0  0  0  0  0  0  0  0  0  0  0  0
    2.8499   -1.3172   -0.7950 O   0  0  0  0  0  0  0  0  0  0  0  0
    1.6254   -0.4174   -1.3473 P   0  0  0  0  0  5  0  0  0  0  0  0
    0.9483   -1.0030   -2.5480 O   0  0  0  0  0  0  0  0  0  0  0  0
    2.3056    1.0273   -1.5682 O   0  0  0  0  0  0  0  0  0  0  0  0
    3.0722    1.5854   -0.5237 C   0  0  0  0  0  0  0  0  0  0  0  0
    0.6942   -0.2499   -0.0353 O   0  0  0  0  0  0  0  0  0  0  0  0
   -0.3848    0.4329    0.0438 C   0  0  0  0  0  0  0  0  0  0  0  0
   -1.0980    1.2910   -0.7246 C   0  0  0  0  0  0  0  0  0  0  0  0
   -0.8714    1.9605   -2.3518 Cl  0  0  0  0  0  0  0  0  0  0  0  0
   -2.1841    1.5038    0.3101 C   0  0  1  0  0  0  0  0  0  0  0  0
   -3.4718    0.8292    0.0312 C   0  0  0  0  0  0  0  0  0  0  0  0
   -3.5353   -0.3409    0.6781 C   0  0  0  0  0  0  0  0  0  0  0  0
   -2.3019   -0.6453    1.4783 C   0  0  0  0  0  0  0  0  0  0  0  0
   -1.3723    0.5493    1.2125 C   0  0  1  0  0  0  0  0  0  0  0  0
  1  2  1  0
  2  3  1  0
  3  4  2  0
  3  5  1  0
  5  6  1  0
  3  7  1  0
  7  8  1  0
  8  9  2  0
  9 10  1  0
  9 11  1  0
 11 12  1  6
 12 13  2  0
 13 14  1  0
 15 14  1  6
 15  8  1  0
 15 11  1  0
M  END
