
     RDKit          3D

 19 20  0  0  0  0  0  0  0  0999 V2000
    1.1517   -0.7310   -2.7861 O   0  0  0  0  0  0  0  0  0  0  0  0
    1.4588   -0.3620   -1.6618 C   0  0  0  0  0  0  0  0  0  0  0  0
    2.8910   -0.3431   -1.1537 C   0  0  2  0  0  0  0  0  0  0  0  0
    3.3356   -2.0090   -0.7112 Cl  0  0  0  0  0  0  0  0  0  0  0  0
    2.8137    0.6233    0.0261 C   0  0  2  0  0  0  0  0  0  0  0  0
    3.9100    0.4765    1.0699 C   0  0  0  0  0  0  0  0  0  0  0  0
    3.7886    1.7636    2.2970 Cl  0  0  0  0  0  0  0  0  0  0  0  0
    1.4087    0.3895    0.5636 C   0  0  0  0  0  0  0  0  0  0  0  0
    0.6251    0.0683   -0.6107 N   0  0  0  0  0  0  0  0  0  0  0  0
   -0.7980    0.0866   -0.6133 C   0  0  0  0  0  0  0  0  0  0  0  0
   -1.5400   -0.1648   -1.7734 C   0  0  0  0  0  0  0  0  0  0  0  0
   -2.9391   -0.1386   -1.7645 C   0  0  0  0  0  0  0  0  0  0  0  0
   -3.6285    0.1378   -0.5888 C   0  0  0  0  0  0  0  0  0  0  0  0
   -2.9222    0.3836    0.5924 C   0  0  0  0  0  0  0  0  0  0  0  0
   -3.6510    0.7023    1.8740 C   0  0  0  0  0  0  0  0  0  0  0  0
   -3.7653    2.0426    2.0829 F   0  0  0  0  0  0  0  0  0  0  0  0
   -3.0230    0.2056    2.9768 F   0  0  0  0  0  0  0  0  0  0  0  0
   -4.9186    0.2061    1.9137 F   0  0  0  0  0  0  0  0  0  0  0  0
   -1.5130    0.3630    0.5647 C   0  0  0  0  0  0  0  0  0  0  0  0
  1  2  2  0
  2  3  1  0
  3  4  1  1
  3  5  1  0
  5  6  1  1
  6  7  1  0
  5  8  1  0
  8  9  1  0
  9 10  1  0
 10 11  2  0
 11 12  1  0
 12 13  2  0
 13 14  1  0
 14 15  1  0
 15 16  1  0
 15 17  1  0
 15 18  1  0
 14 19  2  0
  9  2  1  0
 19 10  1  0
M  END
