
     RDKit          3D

  8  7  0  0  0  0  0  0  0  0999 V2000
   -3.2715   -0.3923   -0.2152 C   0  0  0  0  0  0  0  0  0  0  0  0
   -1.9965   -0.2934    0.6080 C   0  0  0  0  0  0  0  0  0  0  0  0
   -0.7659   -0.1132   -0.2861 C   0  0  0  0  0  0  0  0  0  0  0  0
    0.5290    0.0305    0.5297 C   0  0  2  0  0  0  0  0  0  0  0  0
    1.7592    0.2609   -0.3770 C   0  0  2  0  0  0  0  0  0  0  0  0
    3.0504    0.3978    0.4240 C   0  0  0  0  0  0  0  0  0  0  0  0
    1.5907    1.4310   -1.1766 O   0  0  0  0  0  0  0  0  0  0  0  0
    0.7203   -1.1308    1.3383 O   0  0  0  0  0  0  0  0  0  0  0  0
  1  2  1  0
  2  3  1  0
  3  4  1  0
  4  5  1  0
  5  6  1  1
  5  7  1  0
  4  8  1  6
M  END
