
     RDKit          3D

 13 13  0  0  0  0  0  0  0  0999 V2000
   -2.8917    0.7512   -0.6748 C   0  0  0  0  0  0  0  0  0  0  0  0
   -2.1970   -0.1975    0.2945 C   0  0  2  0  0  0  0  0  0  0  0  0
   -0.6939   -0.1586    0.1245 C   0  0  0  0  0  0  0  0  0  0  0  0
    0.0763    0.7225    0.8976 C   0  0  0  0  0  0  0  0  0  0  0  0
    1.4631    0.7877    0.7361 C   0  0  0  0  0  0  0  0  0  0  0  0
    2.1119   -0.0288   -0.2014 C   0  0  0  0  0  0  0  0  0  0  0  0
    1.3420   -0.8991   -0.9854 C   0  0  0  0  0  0  0  0  0  0  0  0
   -0.0442   -0.9626   -0.8230 C   0  0  0  0  0  0  0  0  0  0  0  0
    3.6055    0.0572   -0.3902 C   0  0  0  0  0  0  0  0  0  0  0  0
    3.9583    1.0037   -1.3038 F   0  0  0  0  0  0  0  0  0  0  0  0
    4.2716    0.3790    0.7547 F   0  0  0  0  0  0  0  0  0  0  0  0
    4.1619   -1.1079   -0.8260 F   0  0  0  0  0  0  0  0  0  0  0  0
   -2.6776   -1.5228    0.0787 O   0  0  0  0  0  0  0  0  0  0  0  0
  2  1  1  6
  2  3  1  0
  3  4  2  0
  4  5  1  0
  5  6  2  0
  6  7  1  0
  7  8  2  0
  6  9  1  0
  9 10  1  0
  9 11  1  0
  9 12  1  0
  2 13  1  0
  8  3  1  0
M  END
