
     RDKit          3D

 21 21  0  0  0  0  0  0  0  0999 V2000
   -0.4481    3.4521    2.0875 C   0  0  0  0  0  0  0  0  0  0  0  0
   -0.8556    2.8482    0.7592 C   0  0  0  0  0  0  0  0  0  0  0  0
   -0.1165    1.6525    0.5646 O   0  0  0  0  0  0  0  0  0  0  0  0
   -0.6211    0.5969   -0.5593 P   0  0  2  0  0  5  0  0  0  0  0  0
   -0.7333    1.3149   -2.3607 S   0  0  0  0  0  0  0  0  0  0  0  0
   -1.9688   -0.0511    0.1485 N   0  0  0  0  0  0  0  0  0  0  0  0
   -2.6316   -1.2016   -0.4737 C   0  0  2  0  0  0  0  0  0  0  0  0
   -3.8277   -0.7276   -1.2986 C   0  0  0  0  0  0  0  0  0  0  0  0
   -3.0467   -2.2478    0.5823 C   0  0  0  0  0  0  0  0  0  0  0  0
   -4.0634   -1.7698    1.6124 C   0  0  0  0  0  0  0  0  0  0  0  0
    0.4638   -0.5850   -0.3672 O   0  0  0  0  0  0  0  0  0  0  0  0
    1.8261   -0.5151   -0.4133 C   0  0  0  0  0  0  0  0  0  0  0  0
    2.5268    0.6449   -0.7483 C   0  0  0  0  0  0  0  0  0  0  0  0
    3.9319    0.6450   -0.8164 C   0  0  0  0  0  0  0  0  0  0  0  0
    4.6669    1.9113   -1.1538 C   0  0  0  0  0  0  0  0  0  0  0  0
    4.6422   -0.5251   -0.5204 C   0  0  0  0  0  0  0  0  0  0  0  0
    3.9602   -1.6904   -0.1774 C   0  0  0  0  0  0  0  0  0  0  0  0
    2.5603   -1.6725   -0.1227 C   0  0  0  0  0  0  0  0  0  0  0  0
    1.8792   -2.9011    0.2612 N   0  0  0  0  0  4  0  0  0  0  0  0
    0.9856   -2.8259    1.1175 O   0  0  0  0  0  0  0  0  0  0  0  0
    2.2633   -3.9501   -0.2757 O   0  0  0  0  0  1  0  0  0  0  0  0
  1  2  1  0
  2  3  1  0
  3  4  1  0
  4  5  2  0
  4  6  1  1
  6  7  1  0
  7  8  1  1
  7  9  1  0
  9 10  1  0
  4 11  1  0
 11 12  1  0
 12 13  2  0
 13 14  1  0
 14 15  1  0
 14 16  2  0
 16 17  1  0
 17 18  2  0
 18 19  1  0
 19 20  2  0
 19 21  1  0
 18 12  1  0
M  CHG  2  19   1  21  -1
M  END
