
     RDKit          3D

 18 20  0  0  0  0  0  0  0  0999 V2000
   -2.9639    0.1132    1.6261 C   0  0  0  0  0  0  0  0  0  0  0  0
   -1.9661   -0.4460    0.6529 C   0  0  1  0  0  0  0  0  0  0  0  0
   -2.4637   -1.3652   -0.4461 C   0  0  0  0  0  0  0  0  0  0  0  0
   -1.9389    0.0127   -0.8019 C   0  0  1  0  0  0  0  0  0  0  0  0
   -2.9059    1.0408   -1.3132 C   0  0  0  0  0  0  0  0  0  0  0  0
   -0.4803    0.1642   -1.1282 C   0  0  0  0  0  0  0  0  0  0  0  0
   -0.1398    0.4521   -2.2632 O   0  0  0  0  0  0  0  0  0  0  0  0
    0.2781   -0.1116   -0.0025 N   0  0  0  0  0  0  0  0  0  0  0  0
    1.7123   -0.0402    0.0413 C   0  0  0  0  0  0  0  0  0  0  0  0
    2.4502    0.5718   -0.9880 C   0  0  0  0  0  0  0  0  0  0  0  0
    3.8479    0.6446   -0.9419 C   0  0  0  0  0  0  0  0  0  0  0  0
    4.7042    1.4120   -2.2240 Cl  0  0  0  0  0  0  0  0  0  0  0  0
    4.5538    0.1125    0.1264 C   0  0  0  0  0  0  0  0  0  0  0  0
    3.8459   -0.4936    1.1532 C   0  0  0  0  0  0  0  0  0  0  0  0
    4.7011   -1.1657    2.4885 Cl  0  0  0  0  0  0  0  0  0  0  0  0
    2.4478   -0.5694    1.1166 C   0  0  0  0  0  0  0  0  0  0  0  0
   -0.5194   -0.5112    1.0571 C   0  0  0  0  0  0  0  0  0  0  0  0
   -0.2220   -0.8662    2.1851 O   0  0  0  0  0  0  0  0  0  0  0  0
  2  1  1  1
  2  3  1  0
  3  4  1  0
  4  5  1  1
  4  6  1  0
  6  7  2  0
  6  8  1  0
  8  9  1  0
  9 10  2  0
 10 11  1  0
 11 12  1  0
 11 13  2  0
 13 14  1  0
 14 15  1  0
 14 16  2  0
  8 17  1  0
 17 18  2  0
  4  2  1  0
 16  9  1  0
 17  2  1  0
M  END
