
     RDKit          3D

 12 12  0  0  0  0  0  0  0  0999 V2000
    2.7312    0.3208   -0.3945 O   0  0  0  0  0  0  0  0  0  0  0  0
    1.3780    0.3003   -0.6268 C   0  0  0  0  0  0  0  0  0  0  0  0
    0.7974    1.0630   -1.3876 O   0  0  0  0  0  0  0  0  0  0  0  0
    0.7474   -0.8748    0.1517 C   0  0  1  0  0  0  0  0  0  0  0  0
    1.5040   -1.2512    1.3057 O   0  0  0  0  0  0  0  0  0  0  0  0
   -0.6837   -0.5929    0.5640 C   0  0  0  0  0  0  0  0  0  0  0  0
   -0.9840    0.0108    1.7956 C   0  0  0  0  0  0  0  0  0  0  0  0
   -2.3057    0.2852    2.1520 C   0  0  0  0  0  0  0  0  0  0  0  0
   -3.3442   -0.0332    1.2799 C   0  0  0  0  0  0  0  0  0  0  0  0
   -3.0625   -0.6247    0.0505 C   0  0  0  0  0  0  0  0  0  0  0  0
   -1.7413   -0.9012   -0.3072 C   0  0  0  0  0  0  0  0  0  0  0  0
    3.4171    1.3695   -1.0809 C   0  0  0  0  0  0  0  0  0  0  0  0
  1  2  1  0
  2  3  2  0
  2  4  1  0
  4  5  1  1
  4  6  1  0
  6  7  2  0
  7  8  1  0
  8  9  2  0
  9 10  1  0
 10 11  2  0
  1 12  1  0
 11  6  1  0
M  END
