
     RDKit          3D

 13 14  0  0  0  0  0  0  0  0999 V2000
    3.3587   -0.7738    0.0214 C   0  0  0  0  0  0  0  0  0  0  0  0
    2.6488    0.5606   -0.1902 C   0  0  1  0  0  0  0  0  0  0  0  0
    1.1342    0.5419   -0.1324 C   0  0  0  0  0  0  0  0  0  0  0  0
    0.3786   -0.6340    0.0030 C   0  0  0  0  0  0  0  0  0  0  0  0
   -1.0296   -0.6096    0.0256 C   0  0  0  0  0  0  0  0  0  0  0  0
   -1.7815   -1.7886    0.1629 C   0  0  0  0  0  0  0  0  0  0  0  0
   -3.1769   -1.7495    0.1834 C   0  0  0  0  0  0  0  0  0  0  0  0
   -3.8399   -0.5317    0.0673 C   0  0  0  0  0  0  0  0  0  0  0  0
   -3.1087    0.6490   -0.0694 C   0  0  0  0  0  0  0  0  0  0  0  0
   -1.7044    0.6249   -0.0921 C   0  0  0  0  0  0  0  0  0  0  0  0
   -0.9556    1.8007   -0.2276 C   0  0  0  0  0  0  0  0  0  0  0  0
    0.4409    1.7572   -0.2489 C   0  0  0  0  0  0  0  0  0  0  0  0
    3.1215    1.4766    0.7994 O   0  0  0  0  0  0  0  0  0  0  0  0
  2  1  1  1
  2  3  1  0
  3  4  2  0
  4  5  1  0
  5  6  2  0
  6  7  1  0
  7  8  2  0
  8  9  1  0
  9 10  2  0
 10 11  1  0
 11 12  2  0
  2 13  1  0
 12  3  1  0
 10  5  1  0
M  END
