
     RDKit          3D

 10 11  0  0  0  0  0  0  0  0999 V2000
   -1.5933    1.1532    0.6384 C   0  0  0  0  0  0  0  0  0  0  0  0
   -0.7800    0.2766   -0.3240 C   0  0  0  0  0  0  0  0  0  0  0  0
    0.6321    0.8637   -0.6580 C   0  0  1  0  0  0  0  0  0  0  0  0
    1.4180    1.2544    0.6144 C   0  0  0  0  0  0  0  0  0  0  0  0
    1.7195   -0.1072    1.2676 C   0  0  0  0  0  0  0  0  0  0  0  0
    1.1646   -1.1103    0.2427 C   0  0  2  0  0  0  0  0  0  0  0  0
    1.4218   -0.3866   -1.0773 C   0  0  0  0  0  0  0  0  0  0  0  0
   -0.3516   -1.0476    0.3044 C   0  0  0  0  0  0  0  0  0  0  0  0
   -1.1449   -2.0096    0.7913 C   0  0  0  0  0  0  0  0  0  0  0  0
   -1.6038    0.0632   -1.6074 C   0  0  0  0  0  0  0  0  0  0  0  0
  1  2  1  0
  2  3  1  0
  3  4  1  1
  4  5  1  0
  6  5  1  1
  6  7  1  0
  6  8  1  0
  8  9  2  0
  2 10  1  0
  8  2  1  0
  7  3  1  0
M  END
