
     RDKit          3D

 26 27  0  0  0  0  0  0  0  0999 V2000
    4.6518   -2.5550    0.4178 N   0  0  0  0  0  0  0  0  0  0  0  0
    3.6866   -1.9434    0.2109 C   0  0  0  0  0  0  0  0  0  0  0  0
    2.5415   -1.1449   -0.1118 C   0  0  0  0  0  0  0  0  0  0  0  0
    1.3771   -1.3797    0.5012 N   0  0  0  0  0  0  0  0  0  0  0  0
    0.5092   -0.4876   -0.0525 N   0  0  0  0  0  0  0  0  0  0  0  0
   -0.8401   -0.4690    0.3675 C   0  0  0  0  0  0  0  0  0  0  0  0
   -1.1447   -0.3407    1.7330 C   0  0  0  0  0  0  0  0  0  0  0  0
    0.0460   -0.0624    2.9596 Cl  0  0  0  0  0  0  0  0  0  0  0  0
   -2.4799   -0.3396    2.1587 C   0  0  0  0  0  0  0  0  0  0  0  0
   -3.5292   -0.4624    1.2389 C   0  0  0  0  0  0  0  0  0  0  0  0
   -4.9651   -0.4843    1.7049 C   0  0  0  0  0  0  0  0  0  0  0  0
   -5.1636    0.2248    2.8488 F   0  0  0  0  0  0  0  0  0  0  0  0
   -5.8243    0.0370    0.7872 F   0  0  0  0  0  0  0  0  0  0  0  0
   -5.4023   -1.7462    1.9589 F   0  0  0  0  0  0  0  0  0  0  0  0
   -3.2168   -0.6074   -0.1195 C   0  0  0  0  0  0  0  0  0  0  0  0
   -1.8853   -0.6137   -0.5571 C   0  0  0  0  0  0  0  0  0  0  0  0
   -1.6405   -0.9247   -2.2418 Cl  0  0  0  0  0  0  0  0  0  0  0  0
    1.1381    0.3237   -1.0017 C   0  0  0  0  0  0  0  0  0  0  0  0
    0.5449    1.3482   -1.6714 N   0  0  0  0  0  0  0  0  0  0  0  0
    2.4484   -0.0951   -1.0335 C   0  0  0  0  0  0  0  0  0  0  0  0
    3.7643    0.5624   -2.0465 S   0  0  0  0  0  4  0  0  0  0  0  0
    3.1029    1.3425   -3.1521 O   0  0  0  0  0  0  0  0  0  0  0  0
    4.4520    1.6989   -0.8073 C   0  0  0  0  0  0  0  0  0  0  0  0
    5.5257    2.3745   -1.2894 F   0  0  0  0  0  0  0  0  0  0  0  0
    4.8778    1.0232    0.2918 F   0  0  0  0  0  0  0  0  0  0  0  0
    3.5558    2.6223   -0.3800 F   0  0  0  0  0  0  0  0  0  0  0  0
  1  2  3  0
  2  3  1  0
  3  4  2  0
  4  5  1  0
  5  6  1  0
  6  7  2  0
  7  8  1  0
  7  9  1  0
  9 10  2  0
 10 11  1  0
 11 12  1  0
 11 13  1  0
 11 14  1  0
 10 15  1  0
 15 16  2  0
 16 17  1  0
  5 18  1  0
 18 19  1  0
 18 20  2  0
 20 21  1  0
 21 22  2  0
 21 23  1  1
 23 24  1  0
 23 25  1  0
 23 26  1  0
 20  3  1  0
 16  6  1  0
M  END
