
     RDKit          3D

 20 20  0  0  0  0  0  0  0  0999 V2000
   -5.5725    2.3764   -0.1381 C   0  0  0  0  0  0  0  0  0  0  0  0
   -4.2390    1.6553   -0.0057 C   0  0  0  0  0  0  0  0  0  0  0  0
   -4.3633    0.1807   -0.3948 C   0  0  0  0  0  0  0  0  0  0  0  0
   -3.0293   -0.5777   -0.3466 C   0  0  0  0  0  0  0  0  0  0  0  0
   -2.8047   -1.4143    0.9347 C   0  0  2  0  0  0  0  0  0  0  0  0
   -2.7219   -0.5849    2.2334 C   0  0  0  0  0  0  0  0  0  0  0  0
   -1.5698    0.4051    2.3304 C   0  0  0  0  0  0  0  0  0  0  0  0
   -1.5902   -2.3507    0.7655 C   0  0  0  0  0  0  0  0  0  0  0  0
   -0.4342   -1.6054    0.3661 O   0  0  0  0  0  0  0  0  0  0  0  0
    0.6811   -2.3509    0.1724 C   0  0  0  0  0  0  0  0  0  0  0  0
    0.7652   -3.5609    0.3104 O   0  0  0  0  0  0  0  0  0  0  0  0
    1.8172   -1.4845   -0.2416 C   0  0  0  0  0  0  0  0  0  0  0  0
    3.0437   -2.0839   -0.5268 C   0  0  0  0  0  0  0  0  0  0  0  0
    4.1416   -1.3038   -0.9219 C   0  0  0  0  0  0  0  0  0  0  0  0
    4.0669    0.0960   -1.0341 C   0  0  0  0  0  0  0  0  0  0  0  0
    5.1552    0.8760   -1.4414 N   0  0  0  0  0  0  0  0  0  0  0  0
    5.1882    2.2830   -1.0421 C   0  0  0  0  0  0  0  0  0  0  0  0
    6.4584    0.2449   -1.6410 C   0  0  0  0  0  0  0  0  0  0  0  0
    2.8123    0.6684   -0.7535 C   0  0  0  0  0  0  0  0  0  0  0  0
    1.7051   -0.0994   -0.3610 C   0  0  0  0  0  0  0  0  0  0  0  0
  1  2  1  0
  2  3  1  0
  3  4  1  0
  5  4  1  6
  5  6  1  0
  6  7  1  0
  5  8  1  0
  8  9  1  0
  9 10  1  0
 10 11  2  0
 10 12  1  0
 12 13  2  0
 13 14  1  0
 14 15  2  0
 15 16  1  0
 16 17  1  0
 16 18  1  0
 15 19  1  0
 19 20  2  0
 20 12  1  0
M  END
