
     RDKit          3D

 26 28  0  0  0  0  0  0  0  0999 V2000
   -2.7210   -1.2583    0.4051 C   0  0  0  0  0  0  0  0  0  0  0  0
   -3.5701   -0.0067    0.4118 C   0  0  0  0  0  0  0  0  0  0  0  0
   -4.9835   -0.2633    0.8797 C   0  0  0  0  0  0  0  0  0  0  0  0
   -3.3754    1.0693   -0.6442 C   0  0  2  0  0  0  0  0  0  0  0  0
   -2.3792    0.9337   -1.7205 C   0  0  0  0  0  0  0  0  0  0  0  0
   -1.8434    1.9191   -2.4589 C   0  0  0  0  0  0  0  0  0  0  0  0
   -0.6924    1.5539   -3.6960 Cl  0  0  0  0  0  0  0  0  0  0  0  0
   -2.2834    3.5746   -2.2454 Cl  0  0  0  0  0  0  0  0  0  0  0  0
   -2.9488    1.3353    0.7869 C   0  0  2  0  0  0  0  0  0  0  0  0
   -1.5291    1.4630    1.1949 C   0  0  0  0  0  0  0  0  0  0  0  0
   -0.7572    2.2274    0.6371 O   0  0  0  0  0  0  0  0  0  0  0  0
   -1.2477    0.6722    2.2612 O   0  0  0  0  0  0  0  0  0  0  0  0
    0.1268    0.6466    2.6604 C   0  0  0  0  0  0  0  0  0  0  0  0
    0.7834   -0.5705    2.0614 C   0  0  0  0  0  0  0  0  0  0  0  0
    0.7734   -1.7964    2.7418 C   0  0  0  0  0  0  0  0  0  0  0  0
    1.3321   -2.9349    2.1584 C   0  0  0  0  0  0  0  0  0  0  0  0
    1.9004   -2.8603    0.8878 C   0  0  0  0  0  0  0  0  0  0  0  0
    1.9236   -1.6450    0.2047 C   0  0  0  0  0  0  0  0  0  0  0  0
    2.4519   -1.6632   -1.0666 O   0  0  0  0  0  0  0  0  0  0  0  0
    3.2092   -0.5811   -1.4510 C   0  0  0  0  0  0  0  0  0  0  0  0
    2.8778    0.0414   -2.6540 C   0  0  0  0  0  0  0  0  0  0  0  0
    3.6315    1.1255   -3.1043 C   0  0  0  0  0  0  0  0  0  0  0  0
    4.7258    1.5710   -2.3615 C   0  0  0  0  0  0  0  0  0  0  0  0
    5.0707    0.9306   -1.1701 C   0  0  0  0  0  0  0  0  0  0  0  0
    4.3169   -0.1524   -0.7159 C   0  0  0  0  0  0  0  0  0  0  0  0
    1.3540   -0.5060    0.7811 C   0  0  0  0  0  0  0  0  0  0  0  0
  1  2  1  0
  2  3  1  0
  2  4  1  0
  4  5  1  6
  5  6  2  3
  6  7  1  0
  6  8  1  0
  4  9  1  0
  9 10  1  6
 10 11  2  0
 10 12  1  0
 12 13  1  0
 13 14  1  0
 14 15  2  0
 15 16  1  0
 16 17  2  0
 17 18  1  0
 18 19  1  0
 19 20  1  0
 20 21  2  0
 21 22  1  0
 22 23  2  0
 23 24  1  0
 24 25  2  0
 18 26  2  0
  9  2  1  0
 26 14  1  0
 25 20  1  0
M  END
