
     RDKit          3D

 19 20  0  0  0  0  0  0  0  0999 V2000
    0.5148   -2.3527   -0.8468 O   0  0  0  0  0  0  0  0  0  0  0  0
    1.1209   -1.3522   -0.4922 C   0  0  0  0  0  0  0  0  0  0  0  0
    2.6372   -1.2306   -0.5300 C   0  0  1  0  0  0  0  0  0  0  0  0
    3.1024   -0.8707   -2.2118 Cl  0  0  0  0  0  0  0  0  0  0  0  0
    2.8924   -0.0866    0.4504 C   0  0  1  0  0  0  0  0  0  0  0  0
    4.2019    0.6734    0.3219 C   0  0  0  0  0  0  0  0  0  0  0  0
    5.5907   -0.3993    0.6075 Cl  0  0  0  0  0  0  0  0  0  0  0  0
    1.6767    0.8050    0.2477 C   0  0  0  0  0  0  0  0  0  0  0  0
    0.6035   -0.1226   -0.0338 N   0  0  0  0  0  0  0  0  0  0  0  0
   -0.7692    0.2436    0.0401 C   0  0  0  0  0  0  0  0  0  0  0  0
   -1.1411    1.5685    0.3183 C   0  0  0  0  0  0  0  0  0  0  0  0
   -2.4852    1.9480    0.3930 C   0  0  0  0  0  0  0  0  0  0  0  0
   -3.4892    1.0067    0.1933 C   0  0  0  0  0  0  0  0  0  0  0  0
   -3.1559   -0.3243   -0.0785 C   0  0  0  0  0  0  0  0  0  0  0  0
   -4.2271   -1.3616   -0.3121 C   0  0  0  0  0  0  0  0  0  0  0  0
   -4.3595   -1.6873   -1.6269 F   0  0  0  0  0  0  0  0  0  0  0  0
   -3.9869   -2.5296    0.3456 F   0  0  0  0  0  0  0  0  0  0  0  0
   -5.4638   -0.9576    0.0965 F   0  0  0  0  0  0  0  0  0  0  0  0
   -1.7968   -0.6887   -0.1577 C   0  0  0  0  0  0  0  0  0  0  0  0
  1  2  2  0
  2  3  1  0
  3  4  1  6
  3  5  1  0
  5  6  1  6
  6  7  1  0
  5  8  1  0
  8  9  1  0
  9 10  1  0
 10 11  2  0
 11 12  1  0
 12 13  2  0
 13 14  1  0
 14 15  1  0
 15 16  1  0
 15 17  1  0
 15 18  1  0
 14 19  2  0
  9  2  1  0
 19 10  1  0
M  END
