
     RDKit          3D

 25 27  0  0  0  0  0  0  0  0999 V2000
   -3.3481    2.5863    0.8125 C   0  0  0  0  0  0  0  0  0  0  0  0
   -3.2615    1.2032    0.1158 C   0  0  0  0  0  0  0  0  0  0  0  0
   -2.6625    1.4399   -1.2814 C   0  0  0  0  0  0  0  0  0  0  0  0
   -4.7075    0.6948   -0.0365 C   0  0  0  0  0  0  0  0  0  0  0  0
   -2.3652    0.2545    0.9903 C   0  0  1  0  0  0  0  0  0  0  0  0
   -3.0076   -0.0504    2.2437 O   0  0  0  0  0  0  0  0  0  0  0  0
   -1.8138   -1.0741    0.3873 C   0  0  2  0  0  0  0  0  0  0  0  0
   -0.8667   -0.8319   -0.6617 O   0  0  0  0  0  0  0  0  0  0  0  0
    0.4447   -0.6178   -0.3512 C   0  0  0  0  0  0  0  0  0  0  0  0
    1.0013   -0.5414    0.9231 C   0  0  0  0  0  0  0  0  0  0  0  0
    2.3744   -0.3043    1.0784 C   0  0  0  0  0  0  0  0  0  0  0  0
    3.2187   -0.1367   -0.0305 C   0  0  0  0  0  0  0  0  0  0  0  0
    4.6590    0.1138    0.1409 C   0  0  0  0  0  0  0  0  0  0  0  0
    5.2792    1.2181   -0.4673 C   0  0  0  0  0  0  0  0  0  0  0  0
    6.6464    1.4578   -0.3039 C   0  0  0  0  0  0  0  0  0  0  0  0
    7.4177    0.5951    0.4704 C   0  0  0  0  0  0  0  0  0  0  0  0
    6.8236   -0.5062    1.0810 C   0  0  0  0  0  0  0  0  0  0  0  0
    5.4560   -0.7438    0.9176 C   0  0  0  0  0  0  0  0  0  0  0  0
    2.6430   -0.2151   -1.3059 C   0  0  0  0  0  0  0  0  0  0  0  0
    1.2739   -0.4527   -1.4617 C   0  0  0  0  0  0  0  0  0  0  0  0
   -2.8612   -1.9726   -0.1071 N   0  0  0  0  0  0  0  0  0  0  0  0
   -3.7102   -2.7194    0.6599 C   0  0  0  0  0  0  0  0  0  0  0  0
   -4.4648   -3.4682   -0.1105 N   0  0  0  0  0  0  0  0  0  0  0  0
   -4.0284   -3.1526   -1.3647 C   0  0  0  0  0  0  0  0  0  0  0  0
   -3.0506   -2.2459   -1.4195 N   0  0  0  0  0  0  0  0  0  0  0  0
  1  2  1  0
  2  3  1  0
  2  4  1  0
  2  5  1  0
  5  6  1  1
  5  7  1  0
  7  8  1  6
  8  9  1  0
  9 10  2  0
 10 11  1  0
 11 12  2  0
 12 13  1  0
 13 14  2  0
 14 15  1  0
 15 16  2  0
 16 17  1  0
 17 18  2  0
 12 19  1  0
 19 20  2  0
  7 21  1  0
 21 22  1  0
 22 23  2  0
 23 24  1  0
 24 25  2  0
 20  9  1  0
 25 21  1  0
 18 13  1  0
M  END
