
     RDKit          3D

 19 19  0  0  0  0  0  0  0  0999 V2000
    0.4624    4.0123   -0.2502 C   0  0  0  0  0  0  0  0  0  0  0  0
    1.2700    2.8580    0.3122 C   0  0  0  0  0  0  0  0  0  0  0  0
    0.9235    1.6386   -0.3601 O   0  0  0  0  0  0  0  0  0  0  0  0
   -0.1475    0.9599    0.1507 C   0  0  0  0  0  0  0  0  0  0  0  0
   -0.8122    1.3311    1.1105 O   0  0  0  0  0  0  0  0  0  0  0  0
   -0.3747   -0.3233   -0.6485 C   0  0  1  0  0  0  0  0  0  0  0  0
   -0.2799   -1.7773    0.4536 S   0  0  0  0  0  0  0  0  0  0  0  0
    1.6855   -1.6478    1.1896 P   0  0  0  0  0  5  0  0  0  0  0  0
    3.1586   -1.7358   -0.0888 S   0  0  0  0  0  0  0  0  0  0  0  0
    1.8090   -2.7522    2.3775 O   0  0  0  0  0  0  0  0  0  0  0  0
    1.8212   -4.1259    2.0409 C   0  0  0  0  0  0  0  0  0  0  0  0
    1.7248   -0.2961    2.0892 O   0  0  0  0  0  0  0  0  0  0  0  0
    2.8585   -0.0194    2.8876 C   0  0  0  0  0  0  0  0  0  0  0  0
   -1.6737   -0.3018   -1.4359 C   0  0  0  0  0  0  0  0  0  0  0  0
   -1.6490   -0.4938   -2.8278 C   0  0  0  0  0  0  0  0  0  0  0  0
   -2.8305   -0.4752   -3.5718 C   0  0  0  0  0  0  0  0  0  0  0  0
   -4.0525   -0.2672   -2.9371 C   0  0  0  0  0  0  0  0  0  0  0  0
   -4.0955   -0.0798   -1.5579 C   0  0  0  0  0  0  0  0  0  0  0  0
   -2.9158   -0.0983   -0.8114 C   0  0  0  0  0  0  0  0  0  0  0  0
  1  2  1  0
  2  3  1  0
  3  4  1  0
  4  5  2  0
  4  6  1  0
  6  7  1  1
  7  8  1  0
  8  9  2  0
  8 10  1  0
 10 11  1  0
  8 12  1  0
 12 13  1  0
  6 14  1  0
 14 15  2  0
 15 16  1  0
 16 17  2  0
 17 18  1  0
 18 19  2  0
 19 14  1  0
M  END
