
     RDKit          3D

 25 27  0  0  0  0  0  0  0  0999 V2000
   -4.8444    1.0960    0.4261 C   0  0  0  0  0  0  0  0  0  0  0  0
   -4.2762   -0.1396   -0.2925 C   0  0  0  0  0  0  0  0  0  0  0  0
   -5.3245   -0.5717   -1.3479 C   0  0  0  0  0  0  0  0  0  0  0  0
   -4.1321   -1.2868    0.7242 C   0  0  0  0  0  0  0  0  0  0  0  0
   -2.9209    0.1606   -1.0144 C   0  0  2  0  0  0  0  0  0  0  0  0
   -2.6035   -0.9881   -1.8390 O   0  0  0  0  0  0  0  0  0  0  0  0
   -1.6712    0.4808   -0.1416 C   0  0  1  0  0  0  0  0  0  0  0  0
   -0.5592    0.5547   -1.0721 O   0  0  0  0  0  0  0  0  0  0  0  0
    0.6845    0.1866   -0.6412 C   0  0  0  0  0  0  0  0  0  0  0  0
    1.0961    0.0600    0.6830 C   0  0  0  0  0  0  0  0  0  0  0  0
    2.4153   -0.3087    0.9771 C   0  0  0  0  0  0  0  0  0  0  0  0
    3.3481   -0.5556   -0.0412 C   0  0  0  0  0  0  0  0  0  0  0  0
    4.7305   -0.9401    0.2764 C   0  0  0  0  0  0  0  0  0  0  0  0
    5.2650   -2.1551   -0.1798 C   0  0  0  0  0  0  0  0  0  0  0  0
    6.5785   -2.5219    0.1250 C   0  0  0  0  0  0  0  0  0  0  0  0
    7.3797   -1.6761    0.8883 C   0  0  0  0  0  0  0  0  0  0  0  0
    6.8686   -0.4656    1.3484 C   0  0  0  0  0  0  0  0  0  0  0  0
    5.5537   -0.1021    1.0458 C   0  0  0  0  0  0  0  0  0  0  0  0
    2.9220   -0.4180   -1.3690 C   0  0  0  0  0  0  0  0  0  0  0  0
    1.6071   -0.0445   -1.6637 C   0  0  0  0  0  0  0  0  0  0  0  0
   -1.7506    1.7445    0.5643 N   0  0  0  0  0  0  0  0  0  0  0  0
   -1.7549    3.0003    0.0391 C   0  0  0  0  0  0  0  0  0  0  0  0
   -1.8223    3.8837    1.0079 N   0  0  0  0  0  0  0  0  0  0  0  0
   -1.8186    3.1095    2.1310 C   0  0  0  0  0  0  0  0  0  0  0  0
   -1.7681    1.7926    1.9150 N   0  0  0  0  0  0  0  0  0  0  0  0
  1  2  1  0
  2  3  1  0
  2  4  1  0
  2  5  1  0
  5  6  1  1
  5  7  1  0
  7  8  1  6
  8  9  1  0
  9 10  2  0
 10 11  1  0
 11 12  2  0
 12 13  1  0
 13 14  2  0
 14 15  1  0
 15 16  2  0
 16 17  1  0
 17 18  2  0
 12 19  1  0
 19 20  2  0
  7 21  1  0
 21 22  1  0
 22 23  2  0
 23 24  1  0
 24 25  2  0
 20  9  1  0
 25 21  1  0
 18 13  1  0
M  END
