
     RDKit          3D

 25 27  0  0  0  0  0  0  0  0999 V2000
   -2.7178    0.5957   -2.3627 C   0  0  0  0  0  0  0  0  0  0  0  0
   -3.5464   -0.0589   -1.2392 C   0  0  0  0  0  0  0  0  0  0  0  0
   -4.5460   -1.0260   -1.9235 C   0  0  0  0  0  0  0  0  0  0  0  0
   -4.3669    1.0309   -0.5322 C   0  0  0  0  0  0  0  0  0  0  0  0
   -2.6781   -0.8918   -0.2340 C   0  0  1  0  0  0  0  0  0  0  0  0
   -1.9067   -1.8423   -1.0061 O   0  0  0  0  0  0  0  0  0  0  0  0
   -1.7284   -0.1520    0.7601 C   0  0  1  0  0  0  0  0  0  0  0  0
   -0.9891    0.9071    0.1244 O   0  0  0  0  0  0  0  0  0  0  0  0
    0.3502    0.6306    0.1013 C   0  0  0  0  0  0  0  0  0  0  0  0
    1.1503    0.9783    1.1858 C   0  0  0  0  0  0  0  0  0  0  0  0
    2.5198    0.7031    1.1461 C   0  0  0  0  0  0  0  0  0  0  0  0
    3.1049    0.0961    0.0212 C   0  0  0  0  0  0  0  0  0  0  0  0
    4.5467   -0.1903   -0.0176 C   0  0  0  0  0  0  0  0  0  0  0  0
    5.1487   -1.0010    0.9591 C   0  0  0  0  0  0  0  0  0  0  0  0
    6.5192   -1.2717    0.9248 C   0  0  0  0  0  0  0  0  0  0  0  0
    7.3105   -0.7334   -0.0872 C   0  0  0  0  0  0  0  0  0  0  0  0
    6.7328    0.0732   -1.0660 C   0  0  0  0  0  0  0  0  0  0  0  0
    5.3619    0.3418   -1.0312 C   0  0  0  0  0  0  0  0  0  0  0  0
    2.2767   -0.2178   -1.0703 C   0  0  0  0  0  0  0  0  0  0  0  0
    0.9066    0.0518   -1.0344 C   0  0  0  0  0  0  0  0  0  0  0  0
   -2.4318    0.3843    1.9252 N   0  0  0  0  0  0  0  0  0  0  0  0
   -2.4948    1.6711    2.3698 C   0  0  0  0  0  0  0  0  0  0  0  0
   -3.1748    1.7196    3.4922 N   0  0  0  0  0  0  0  0  0  0  0  0
   -3.5019    0.4135    3.7112 C   0  0  0  0  0  0  0  0  0  0  0  0
   -3.0629   -0.4463    2.7878 N   0  0  0  0  0  0  0  0  0  0  0  0
  1  2  1  0
  2  3  1  0
  2  4  1  0
  2  5  1  0
  5  6  1  6
  5  7  1  0
  7  8  1  6
  8  9  1  0
  9 10  2  0
 10 11  1  0
 11 12  2  0
 12 13  1  0
 13 14  2  0
 14 15  1  0
 15 16  2  0
 16 17  1  0
 17 18  2  0
 12 19  1  0
 19 20  2  0
  7 21  1  0
 21 22  1  0
 22 23  2  0
 23 24  1  0
 24 25  2  0
 20  9  1  0
 25 21  1  0
 18 13  1  0
M  END
