
     RDKit          3D

 26 27  0  0  0  0  0  0  0  0999 V2000
    4.0216    3.3937    0.5591 N   0  0  0  0  0  0  0  0  0  0  0  0
    3.2774    2.5056    0.6464 C   0  0  0  0  0  0  0  0  0  0  0  0
    2.3445    1.4173    0.7307 C   0  0  0  0  0  0  0  0  0  0  0  0
    1.0650    1.6426    0.4087 N   0  0  0  0  0  0  0  0  0  0  0  0
    0.4450    0.4484    0.5812 N   0  0  0  0  0  0  0  0  0  0  0  0
   -0.9473    0.3483    0.3581 C   0  0  0  0  0  0  0  0  0  0  0  0
   -1.4886    0.7605   -0.8711 C   0  0  0  0  0  0  0  0  0  0  0  0
   -0.5267    1.2556   -2.2230 Cl  0  0  0  0  0  0  0  0  0  0  0  0
   -2.8711    0.6917   -1.0890 C   0  0  0  0  0  0  0  0  0  0  0  0
   -3.7337    0.2120   -0.0949 C   0  0  0  0  0  0  0  0  0  0  0  0
   -5.2253    0.1620   -0.3249 C   0  0  0  0  0  0  0  0  0  0  0  0
   -5.5563    0.0053   -1.6350 F   0  0  0  0  0  0  0  0  0  0  0  0
   -5.8476    1.2957    0.0929 F   0  0  0  0  0  0  0  0  0  0  0  0
   -5.8235   -0.8654    0.3377 F   0  0  0  0  0  0  0  0  0  0  0  0
   -3.1877   -0.1824    1.1343 C   0  0  0  0  0  0  0  0  0  0  0  0
   -1.8070   -0.1151    1.3654 C   0  0  0  0  0  0  0  0  0  0  0  0
   -1.2818   -0.5245    2.9625 Cl  0  0  0  0  0  0  0  0  0  0  0  0
    1.3403   -0.5526    0.9794 C   0  0  0  0  0  0  0  0  0  0  0  0
    1.0052   -1.8604    1.1447 N   0  0  0  0  0  0  0  0  0  0  0  0
    2.5616    0.0764    1.0814 C   0  0  0  0  0  0  0  0  0  0  0  0
    4.1004   -0.6981    1.5357 S   0  0  0  0  0  4  0  0  0  0  0  0
    5.0194    0.4057    1.9734 O   0  0  0  0  0  0  0  0  0  0  0  0
    4.5554   -1.2826   -0.1211 C   0  0  0  0  0  0  0  0  0  0  0  0
    4.4776   -0.3062   -1.0598 F   0  0  0  0  0  0  0  0  0  0  0  0
    3.7447   -2.2936   -0.5300 F   0  0  0  0  0  0  0  0  0  0  0  0
    5.8215   -1.7708   -0.1516 F   0  0  0  0  0  0  0  0  0  0  0  0
  1  2  3  0
  2  3  1  0
  3  4  2  0
  4  5  1  0
  5  6  1  0
  6  7  2  0
  7  8  1  0
  7  9  1  0
  9 10  2  0
 10 11  1  0
 11 12  1  0
 11 13  1  0
 11 14  1  0
 10 15  1  0
 15 16  2  0
 16 17  1  0
  5 18  1  0
 18 19  1  0
 18 20  2  0
 20 21  1  0
 21 22  2  0
 21 23  1  6
 23 24  1  0
 23 25  1  0
 23 26  1  0
 20  3  1  0
 16  6  1  0
M  END
