
     RDKit          3D

 26 27  0  0  0  0  0  0  0  0999 V2000
    3.9092   -3.5179    0.9585 N   0  0  0  0  0  0  0  0  0  0  0  0
    3.1357   -2.7121    0.6412 C   0  0  0  0  0  0  0  0  0  0  0  0
    2.2500   -1.6718    0.2096 C   0  0  0  0  0  0  0  0  0  0  0  0
    0.9464   -1.7492    0.4984 N   0  0  0  0  0  0  0  0  0  0  0  0
    0.4086   -0.6243   -0.0479 N   0  0  0  0  0  0  0  0  0  0  0  0
   -0.9613   -0.3382    0.1349 C   0  0  0  0  0  0  0  0  0  0  0  0
   -1.3667    0.8635    0.7348 C   0  0  0  0  0  0  0  0  0  0  0  0
   -0.2672    2.0202    1.4033 Cl  0  0  0  0  0  0  0  0  0  0  0  0
   -2.7304    1.1298    0.9165 C   0  0  0  0  0  0  0  0  0  0  0  0
   -3.7056    0.2073    0.5125 C   0  0  0  0  0  0  0  0  0  0  0  0
   -5.1716    0.4896    0.7379 C   0  0  0  0  0  0  0  0  0  0  0  0
   -5.4692    1.8159    0.6727 F   0  0  0  0  0  0  0  0  0  0  0  0
   -5.9750   -0.1193   -0.1759 F   0  0  0  0  0  0  0  0  0  0  0  0
   -5.5943    0.0655    1.9582 F   0  0  0  0  0  0  0  0  0  0  0  0
   -3.2899   -1.0008   -0.0633 C   0  0  0  0  0  0  0  0  0  0  0  0
   -1.9297   -1.2769   -0.2540 C   0  0  0  0  0  0  0  0  0  0  0  0
   -1.5540   -2.7516   -1.0791 Cl  0  0  0  0  0  0  0  0  0  0  0  0
    1.3634    0.1259   -0.7375 C   0  0  0  0  0  0  0  0  0  0  0  0
    1.0991    1.2405   -1.4640 N   0  0  0  0  0  0  0  0  0  0  0  0
    2.5572   -0.5272   -0.5375 C   0  0  0  0  0  0  0  0  0  0  0  0
    4.1634   -0.0527   -1.1569 S   0  0  0  0  0  4  0  0  0  0  0  0
    3.9207    0.9198   -2.2809 O   0  0  0  0  0  0  0  0  0  0  0  0
    4.7166    0.8343    0.3282 C   0  0  0  0  0  0  0  0  0  0  0  0
    5.9740    1.3228    0.1806 F   0  0  0  0  0  0  0  0  0  0  0  0
    3.9153    1.8789    0.6515 F   0  0  0  0  0  0  0  0  0  0  0  0
    4.7434    0.0083    1.4072 F   0  0  0  0  0  0  0  0  0  0  0  0
  1  2  3  0
  2  3  1  0
  3  4  2  0
  4  5  1  0
  5  6  1  0
  6  7  2  0
  7  8  1  0
  7  9  1  0
  9 10  2  0
 10 11  1  0
 11 12  1  0
 11 13  1  0
 11 14  1  0
 10 15  1  0
 15 16  2  0
 16 17  1  0
  5 18  1  0
 18 19  1  0
 18 20  2  0
 20 21  1  0
 21 22  2  0
 21 23  1  1
 23 24  1  0
 23 25  1  0
 23 26  1  0
 20  3  1  0
 16  6  1  0
M  END
