
     RDKit          3D

 26 27  0  0  0  0  0  0  0  0999 V2000
    3.0257    0.3947    4.3503 N   0  0  0  0  0  0  0  0  0  0  0  0
    2.4598    0.3713    3.3366 C   0  0  0  0  0  0  0  0  0  0  0  0
    1.8357    0.3821    2.0469 C   0  0  0  0  0  0  0  0  0  0  0  0
    0.5640   -0.0109    1.9238 N   0  0  0  0  0  0  0  0  0  0  0  0
    0.2777    0.1543    0.6023 N   0  0  0  0  0  0  0  0  0  0  0  0
   -1.0122   -0.1628    0.1195 C   0  0  0  0  0  0  0  0  0  0  0  0
   -1.5560   -1.4350    0.3638 C   0  0  0  0  0  0  0  0  0  0  0  0
   -0.6807   -2.7234    1.1211 Cl  0  0  0  0  0  0  0  0  0  0  0  0
   -2.8416   -1.7505   -0.0963 C   0  0  0  0  0  0  0  0  0  0  0  0
   -3.6029   -0.8128   -0.8058 C   0  0  0  0  0  0  0  0  0  0  0  0
   -4.9965   -1.1497   -1.2789 C   0  0  0  0  0  0  0  0  0  0  0  0
   -5.1643   -2.4747   -1.5375 F   0  0  0  0  0  0  0  0  0  0  0  0
   -5.9433   -0.8182   -0.3615 F   0  0  0  0  0  0  0  0  0  0  0  0
   -5.3350   -0.4986   -2.4251 F   0  0  0  0  0  0  0  0  0  0  0  0
   -3.0604    0.4596   -1.0304 C   0  0  0  0  0  0  0  0  0  0  0  0
   -1.7773    0.7883   -0.5720 C   0  0  0  0  0  0  0  0  0  0  0  0
   -1.2829    2.4296   -0.8090 Cl  0  0  0  0  0  0  0  0  0  0  0  0
    1.3817    0.6332   -0.1093 C   0  0  0  0  0  0  0  0  0  0  0  0
    1.4189    0.8325   -1.4543 N   0  0  0  0  0  0  0  0  0  0  0  0
    2.3865    0.7723    0.8203 C   0  0  0  0  0  0  0  0  0  0  0  0
    4.0546    1.3387    0.5256 S   0  0  0  0  0  4  0  0  0  0  0  0
    4.0383    2.0394   -0.8075 O   0  0  0  0  0  0  0  0  0  0  0  0
    4.8197   -0.3005    0.3584 C   0  0  0  0  0  0  0  0  0  0  0  0
    4.2877   -1.0332   -0.6508 F   0  0  0  0  0  0  0  0  0  0  0  0
    6.1539   -0.2087    0.1280 F   0  0  0  0  0  0  0  0  0  0  0  0
    4.6696   -1.0276    1.4963 F   0  0  0  0  0  0  0  0  0  0  0  0
  1  2  3  0
  2  3  1  0
  3  4  2  0
  4  5  1  0
  5  6  1  0
  6  7  2  0
  7  8  1  0
  7  9  1  0
  9 10  2  0
 10 11  1  0
 11 12  1  0
 11 13  1  0
 11 14  1  0
 10 15  1  0
 15 16  2  0
 16 17  1  0
  5 18  1  0
 18 19  1  0
 18 20  2  0
 20 21  1  0
 21 22  2  0
 21 23  1  1
 23 24  1  0
 23 25  1  0
 23 26  1  0
 20  3  1  0
 16  6  1  0
M  END
