
     RDKit          3D

 11 10  0  0  0  0  0  0  0  0999 V2000
    4.3711   -0.7434    0.3493 C   0  0  0  0  0  0  0  0  0  0  0  0
    3.0025   -0.2383   -0.0268 C   0  0  0  0  0  0  0  0  0  0  0  0
    2.8854    0.2292   -1.4516 C   0  0  0  0  0  0  0  0  0  0  0  0
    1.9984   -0.2406    0.8718 C   0  0  0  0  0  0  0  0  0  0  0  0
    0.5914    0.2552    0.6756 C   0  0  0  0  0  0  0  0  0  0  0  0
   -0.3734   -0.9123    0.4445 C   0  0  0  0  0  0  0  0  0  0  0  0
   -1.8534   -0.5162    0.2484 C   0  0  1  0  0  0  0  0  0  0  0  0
   -2.4201    0.1725    1.4928 C   0  0  0  0  0  0  0  0  0  0  0  0
   -2.0518    0.3313   -1.0211 C   0  0  0  0  0  0  0  0  0  0  0  0
   -3.5170    0.5089   -1.4083 C   0  0  0  0  0  0  0  0  0  0  0  0
   -3.6033    1.2038   -2.6466 O   0  0  0  0  0  0  0  0  0  0  0  0
  1  2  1  0
  2  3  1  0
  2  4  2  3
  4  5  1  0
  5  6  1  0
  6  7  1  0
  7  8  1  1
  7  9  1  0
  9 10  1  0
 10 11  1  0
M  END
