
     RDKit          3D

 26 28  0  0  0  0  0  0  0  0999 V2000
    4.4486    2.7062    0.5853 C   0  0  0  0  0  0  0  0  0  0  0  0
    4.1111    2.0974   -0.7575 C   0  0  0  0  0  0  0  0  0  0  0  0
    4.7819    2.8071   -1.9093 C   0  0  0  0  0  0  0  0  0  0  0  0
    2.7159    1.5345   -0.9978 C   0  0  2  0  0  0  0  0  0  0  0  0
    1.6430    1.6107    0.0200 C   0  0  0  0  0  0  0  0  0  0  0  0
    1.3914    2.6363    0.6340 O   0  0  0  0  0  0  0  0  0  0  0  0
    0.9698    0.4370    0.1180 O   0  0  0  0  0  0  0  0  0  0  0  0
   -0.1000    0.4721    1.0683 C   0  0  0  0  0  0  0  0  0  0  0  0
   -0.7847   -0.8734    1.1063 C   0  0  0  0  0  0  0  0  0  0  0  0
   -0.0455   -2.0663    1.1045 C   0  0  0  0  0  0  0  0  0  0  0  0
   -0.6875   -3.3036    1.1812 C   0  0  0  0  0  0  0  0  0  0  0  0
   -2.0770   -3.3642    1.2628 C   0  0  0  0  0  0  0  0  0  0  0  0
   -2.8244   -2.1880    1.2569 C   0  0  0  0  0  0  0  0  0  0  0  0
   -4.1888   -2.3213    1.3824 O   0  0  0  0  0  0  0  0  0  0  0  0
   -4.9830   -1.5241    0.5905 C   0  0  0  0  0  0  0  0  0  0  0  0
   -6.0729   -0.9079    1.2063 C   0  0  0  0  0  0  0  0  0  0  0  0
   -6.9355   -0.1087    0.4558 C   0  0  0  0  0  0  0  0  0  0  0  0
   -6.7157    0.0610   -0.9115 C   0  0  0  0  0  0  0  0  0  0  0  0
   -5.6402   -0.5760   -1.5318 C   0  0  0  0  0  0  0  0  0  0  0  0
   -4.7762   -1.3770   -0.7832 C   0  0  0  0  0  0  0  0  0  0  0  0
   -2.1826   -0.9461    1.2042 C   0  0  0  0  0  0  0  0  0  0  0  0
    3.9028    0.5975   -0.8980 C   0  0  2  0  0  0  0  0  0  0  0  0
    4.1257   -0.2886    0.2562 C   0  0  0  0  0  0  0  0  0  0  0  0
    5.3008   -0.7561    0.7051 C   0  0  0  0  0  0  0  0  0  0  0  0
    5.3525   -1.8088    2.0752 Cl  0  0  0  0  0  0  0  0  0  0  0  0
    6.7998   -0.3517   -0.0476 Cl  0  0  0  0  0  0  0  0  0  0  0  0
  1  2  1  0
  2  3  1  0
  2  4  1  0
  4  5  1  1
  5  6  2  0
  5  7  1  0
  7  8  1  0
  8  9  1  0
  9 10  2  0
 10 11  1  0
 11 12  2  0
 12 13  1  0
 13 14  1  0
 14 15  1  0
 15 16  2  0
 16 17  1  0
 17 18  2  0
 18 19  1  0
 19 20  2  0
 13 21  2  0
  4 22  1  0
 22 23  1  1
 23 24  2  3
 24 25  1  0
 24 26  1  0
 22  2  1  0
 21  9  1  0
 20 15  1  0
M  END
