
     RDKit          3D

 18 18  0  0  0  0  0  0  0  0999 V2000
    4.8792   -2.2922   -0.4961 C   0  0  0  0  0  0  0  0  0  0  0  0
    4.3360   -0.9255   -0.1057 C   0  0  0  0  0  0  0  0  0  0  0  0
    2.8405   -0.8291   -0.3867 C   0  0  0  0  0  0  0  0  0  0  0  0
    2.2119    0.8035    0.0864 S   0  0  0  0  0  0  0  0  0  0  0  0
    0.1780    0.6554   -0.3603 P   0  0  2  0  0  5  0  0  0  0  0  0
   -0.0152    0.3721   -1.8246 O   0  0  0  0  0  0  0  0  0  0  0  0
   -0.5866    2.0021    0.1128 O   0  0  0  0  0  0  0  0  0  0  0  0
   -0.4050    3.1610   -0.6822 C   0  0  0  0  0  0  0  0  0  0  0  0
   -1.1440    4.3127   -0.0330 C   0  0  0  0  0  0  0  0  0  0  0  0
   -0.4802   -0.4648    0.5934 O   0  0  0  0  0  0  0  0  0  0  0  0
   -1.7920   -0.8519    0.5999 C   0  0  0  0  0  0  0  0  0  0  0  0
   -2.7381   -0.3671   -0.3046 C   0  0  0  0  0  0  0  0  0  0  0  0
   -4.0633   -0.8089   -0.2379 C   0  0  0  0  0  0  0  0  0  0  0  0
   -4.4409   -1.7358    0.7318 C   0  0  0  0  0  0  0  0  0  0  0  0
   -6.2340   -2.3273    0.8149 Br  0  0  0  0  0  0  0  0  0  0  0  0
   -3.5073   -2.2301    1.6378 C   0  0  0  0  0  0  0  0  0  0  0  0
   -2.1850   -1.7874    1.5683 C   0  0  0  0  0  0  0  0  0  0  0  0
   -1.0496   -2.4245    2.7063 Cl  0  0  0  0  0  0  0  0  0  0  0  0
  1  2  1  0
  2  3  1  0
  3  4  1  0
  4  5  1  0
  5  6  2  0
  5  7  1  1
  7  8  1  0
  8  9  1  0
  5 10  1  0
 10 11  1  0
 11 12  2  0
 12 13  1  0
 13 14  2  0
 14 15  1  0
 14 16  1  0
 16 17  2  0
 17 18  1  0
 17 11  1  0
M  END
