
     RDKit          3D

 21 21  0  0  0  0  0  0  0  0999 V2000
   -2.9403   -1.7464    1.7448 C   0  0  0  0  0  0  0  0  0  0  0  0
   -1.7204   -0.8929    1.4347 C   0  0  0  0  0  0  0  0  0  0  0  0
   -1.7817    0.5073    2.0500 C   0  0  0  0  0  0  0  0  0  0  0  0
   -2.9607    1.3785    1.5992 C   0  0  0  0  0  0  0  0  0  0  0  0
   -3.0732    1.6727    0.0832 C   0  0  1  0  0  0  0  0  0  0  0  0
   -4.3749    2.4449   -0.2329 C   0  0  0  0  0  0  0  0  0  0  0  0
   -5.6466    1.6492    0.0297 C   0  0  0  0  0  0  0  0  0  0  0  0
   -1.8784    2.5000   -0.4373 C   0  0  0  0  0  0  0  0  0  0  0  0
   -0.6833    1.7112   -0.5298 O   0  0  0  0  0  0  0  0  0  0  0  0
   -0.5164    1.0278   -1.6875 C   0  0  0  0  0  0  0  0  0  0  0  0
   -1.2783    1.0254   -2.6427 O   0  0  0  0  0  0  0  0  0  0  0  0
    0.7314    0.2358   -1.6825 C   0  0  0  0  0  0  0  0  0  0  0  0
    1.5849    0.1731   -0.6484 C   0  0  0  0  0  0  0  0  0  0  0  0
    2.8207   -0.6208   -0.6580 C   0  0  0  0  0  0  0  0  0  0  0  0
    3.9514   -0.1210   -0.0005 C   0  0  0  0  0  0  0  0  0  0  0  0
    5.1438   -0.8555    0.0401 C   0  0  0  0  0  0  0  0  0  0  0  0
    5.2164   -2.1075   -0.5680 C   0  0  0  0  0  0  0  0  0  0  0  0
    6.3116   -2.9251   -0.6021 O   0  0  0  0  0  0  0  0  0  0  0  0
    7.4914   -2.4461    0.0307 C   0  0  0  0  0  0  0  0  0  0  0  0
    4.0864   -2.6172   -1.2099 C   0  0  0  0  0  0  0  0  0  0  0  0
    2.8956   -1.8850   -1.2518 C   0  0  0  0  0  0  0  0  0  0  0  0
  1  2  1  0
  2  3  1  0
  3  4  1  0
  5  4  1  1
  5  6  1  0
  6  7  1  0
  5  8  1  0
  8  9  1  0
  9 10  1  0
 10 11  2  0
 10 12  1  0
 12 13  2  0
 13 14  1  0
 14 15  2  0
 15 16  1  0
 16 17  2  0
 17 18  1  0
 18 19  1  0
 17 20  1  0
 20 21  2  0
 21 14  1  0
M  END
