
     RDKit          3D

 24 26  0  0  0  0  0  0  0  0999 V2000
    4.7989    0.4613   -2.4547 C   0  0  0  0  0  0  0  0  0  0  0  0
    4.0235   -0.1574   -1.3242 C   0  0  0  0  0  0  0  0  0  0  0  0
    4.2349   -1.6354   -1.1458 C   0  0  0  0  0  0  0  0  0  0  0  0
    3.2093    0.5819   -0.5457 C   0  0  0  0  0  0  0  0  0  0  0  0
    2.3944    0.1109    0.5836 C   0  0  2  0  0  0  0  0  0  0  0  0
    2.0787    1.0743    1.7106 C   0  0  1  0  0  0  0  0  0  0  0  0
    0.7357    1.1211    2.3325 C   0  0  0  0  0  0  0  0  0  0  0  0
    0.5839    1.3302    3.5266 O   0  0  0  0  0  0  0  0  0  0  0  0
   -0.2539    0.9381    1.4248 O   0  0  0  0  0  0  0  0  0  0  0  0
   -1.5506    0.9684    2.0148 C   0  0  0  0  0  0  0  0  0  0  0  0
   -2.5083    0.6989    0.9788 N   0  0  0  0  0  0  0  0  0  0  0  0
   -2.8969   -0.5459    0.6028 C   0  0  0  0  0  0  0  0  0  0  0  0
   -2.5670   -1.6234    1.0620 O   0  0  0  0  0  0  0  0  0  0  0  0
   -3.8344   -0.3682   -0.5083 C   0  0  0  0  0  0  0  0  0  0  0  0
   -3.9436    0.9402   -0.7502 C   0  0  0  0  0  0  0  0  0  0  0  0
   -4.8018    1.5446   -1.7954 C   0  0  0  0  0  0  0  0  0  0  0  0
   -5.7883    0.5047   -2.3568 C   0  0  0  0  0  0  0  0  0  0  0  0
   -5.1358   -0.8724   -2.5639 C   0  0  0  0  0  0  0  0  0  0  0  0
   -4.5262   -1.4357   -1.2674 C   0  0  0  0  0  0  0  0  0  0  0  0
   -3.0874    1.6498    0.2029 C   0  0  0  0  0  0  0  0  0  0  0  0
   -2.9596    2.8589    0.2481 O   0  0  0  0  0  0  0  0  0  0  0  0
    3.0137   -0.1025    1.9554 C   0  0  0  0  0  0  0  0  0  0  0  0
    4.4680    0.2194    2.2044 C   0  0  0  0  0  0  0  0  0  0  0  0
    2.5242   -1.2925    2.7462 C   0  0  0  0  0  0  0  0  0  0  0  0
  1  2  1  0
  2  3  1  0
  2  4  2  3
  5  4  1  6
  5  6  1  0
  6  7  1  1
  7  8  2  0
  7  9  1  0
  9 10  1  0
 10 11  1  0
 11 12  1  0
 12 13  2  0
 12 14  1  0
 14 15  2  0
 15 16  1  0
 16 17  1  0
 17 18  1  0
 18 19  1  0
 15 20  1  0
 20 21  2  0
  6 22  1  0
 22 23  1  0
 22 24  1  0
 22  5  1  0
 20 11  1  0
 19 14  1  0
M  END
