
     RDKit          3D

 24 26  0  0  0  0  0  0  0  0999 V2000
   -6.1868    0.6545    0.7026 C   0  0  0  0  0  0  0  0  0  0  0  0
   -4.7240    0.7706    0.3732 C   0  0  0  0  0  0  0  0  0  0  0  0
   -4.2275    2.1771    0.1821 C   0  0  0  0  0  0  0  0  0  0  0  0
   -3.9414   -0.3207    0.2638 C   0  0  0  0  0  0  0  0  0  0  0  0
   -2.5044   -0.3531   -0.0462 C   0  0  1  0  0  0  0  0  0  0  0  0
   -1.9342   -1.5655   -0.7556 C   0  0  2  0  0  0  0  0  0  0  0  0
   -0.6227   -2.1396   -0.3765 C   0  0  0  0  0  0  0  0  0  0  0  0
    0.1308   -2.6210   -1.2079 O   0  0  0  0  0  0  0  0  0  0  0  0
   -0.4021   -2.0662    0.9572 O   0  0  0  0  0  0  0  0  0  0  0  0
    0.8724   -2.5507    1.3835 C   0  0  0  0  0  0  0  0  0  0  0  0
    1.9035   -1.5878    1.1074 N   0  0  0  0  0  0  0  0  0  0  0  0
    1.9012   -0.3065    1.5572 C   0  0  0  0  0  0  0  0  0  0  0  0
    1.0473    0.2871    2.1893 O   0  0  0  0  0  0  0  0  0  0  0  0
    3.1867    0.2738    1.1638 C   0  0  0  0  0  0  0  0  0  0  0  0
    3.9231   -0.6950    0.6165 C   0  0  0  0  0  0  0  0  0  0  0  0
    5.3008   -0.5308    0.0988 C   0  0  0  0  0  0  0  0  0  0  0  0
    5.6600    0.9612   -0.0223 C   0  0  0  0  0  0  0  0  0  0  0  0
    5.1585    1.7857    1.1750 C   0  0  0  0  0  0  0  0  0  0  0  0
    3.6363    1.6692    1.3740 C   0  0  0  0  0  0  0  0  0  0  0  0
    3.1327   -1.9270    0.6384 C   0  0  0  0  0  0  0  0  0  0  0  0
    3.5657   -3.0252    0.3435 O   0  0  0  0  0  0  0  0  0  0  0  0
   -2.0164   -0.2283   -1.4805 C   0  0  0  0  0  0  0  0  0  0  0  0
   -0.7599    0.5800   -1.7024 C   0  0  0  0  0  0  0  0  0  0  0  0
   -2.9968   -0.1304   -2.6249 C   0  0  0  0  0  0  0  0  0  0  0  0
  1  2  1  0
  2  3  1  0
  2  4  2  3
  5  4  1  6
  5  6  1  0
  6  7  1  1
  7  8  2  0
  7  9  1  0
  9 10  1  0
 10 11  1  0
 11 12  1  0
 12 13  2  0
 12 14  1  0
 14 15  2  0
 15 16  1  0
 16 17  1  0
 17 18  1  0
 18 19  1  0
 15 20  1  0
 20 21  2  0
  6 22  1  0
 22 23  1  0
 22 24  1  0
 22  5  1  0
 20 11  1  0
 19 14  1  0
M  END
