
     RDKit          3D

 18 19  0  0  0  0  0  0  0  0999 V2000
   -3.3388    2.0496   -0.6635 C   0  0  0  0  0  0  0  0  0  0  0  0
   -2.9450    0.7930   -0.9181 C   0  0  0  0  0  0  0  0  0  0  0  0
   -2.2202   -0.1341    0.0299 C   0  0  2  0  0  0  0  0  0  0  0  0
   -3.0256   -1.3939    0.3249 C   0  0  0  0  0  0  0  0  0  0  0  0
   -1.9137    0.5128    1.2571 O   0  0  0  0  0  0  0  0  0  0  0  0
   -0.5584    0.5950    1.3947 C   0  0  0  0  0  0  0  0  0  0  0  0
   -0.0778    1.1561    2.3678 O   0  0  0  0  0  0  0  0  0  0  0  0
    0.0854    0.0050    0.3429 N   0  0  0  0  0  0  0  0  0  0  0  0
    1.5057   -0.0944    0.1788 C   0  0  0  0  0  0  0  0  0  0  0  0
    2.0782   -0.5288   -1.0303 C   0  0  0  0  0  0  0  0  0  0  0  0
    3.4665   -0.6243   -1.1894 C   0  0  0  0  0  0  0  0  0  0  0  0
    4.1170   -1.1549   -2.6930 Cl  0  0  0  0  0  0  0  0  0  0  0  0
    4.3265   -0.2927   -0.1536 C   0  0  0  0  0  0  0  0  0  0  0  0
    3.7833    0.1383    1.0472 C   0  0  0  0  0  0  0  0  0  0  0  0
    4.8312    0.5497    2.3504 Cl  0  0  0  0  0  0  0  0  0  0  0  0
    2.3962    0.2386    1.2151 C   0  0  0  0  0  0  0  0  0  0  0  0
   -0.8543   -0.4856   -0.5269 C   0  0  0  0  0  0  0  0  0  0  0  0
   -0.6947   -1.1208   -1.5624 O   0  0  0  0  0  0  0  0  0  0  0  0
  1  2  2  0
  2  3  1  0
  3  4  1  1
  3  5  1  0
  5  6  1  0
  6  7  2  0
  6  8  1  0
  8  9  1  0
  9 10  2  0
 10 11  1  0
 11 12  1  0
 11 13  2  0
 13 14  1  0
 14 15  1  0
 14 16  2  0
  8 17  1  0
 17 18  2  0
 17  3  1  0
 16  9  1  0
M  END
