
     RDKit          3D

 25 27  0  0  0  0  0  0  0  0999 V2000
   -4.5391   -0.7243    1.7566 C   0  0  0  0  0  0  0  0  0  0  0  0
   -3.3431    0.2421    1.6863 C   0  0  0  0  0  0  0  0  0  0  0  0
   -3.2681    0.9660    3.0531 C   0  0  0  0  0  0  0  0  0  0  0  0
   -3.6119    1.3013    0.6036 C   0  0  0  0  0  0  0  0  0  0  0  0
   -1.9787   -0.4773    1.4397 C   0  0  1  0  0  0  0  0  0  0  0  0
   -1.7693   -1.4844    2.4479 O   0  0  0  0  0  0  0  0  0  0  0  0
   -1.6836   -1.0460    0.0212 C   0  0  1  0  0  0  0  0  0  0  0  0
   -0.3597   -1.6213    0.0210 O   0  0  0  0  0  0  0  0  0  0  0  0
    0.7161   -0.8347   -0.2747 C   0  0  0  0  0  0  0  0  0  0  0  0
    1.9305   -1.5217   -0.3220 C   0  0  0  0  0  0  0  0  0  0  0  0
    3.1244   -0.8493   -0.6017 C   0  0  0  0  0  0  0  0  0  0  0  0
    3.1332    0.5313   -0.8421 C   0  0  0  0  0  0  0  0  0  0  0  0
    4.3860    1.2448   -1.1380 C   0  0  0  0  0  0  0  0  0  0  0  0
    4.5115    2.0409   -2.2889 C   0  0  0  0  0  0  0  0  0  0  0  0
    5.7007    2.7189   -2.5705 C   0  0  0  0  0  0  0  0  0  0  0  0
    6.7856    2.6130   -1.7041 C   0  0  0  0  0  0  0  0  0  0  0  0
    6.6828    1.8293   -0.5577 C   0  0  0  0  0  0  0  0  0  0  0  0
    5.4932    1.1509   -0.2782 C   0  0  0  0  0  0  0  0  0  0  0  0
    1.9061    1.2105   -0.7912 C   0  0  0  0  0  0  0  0  0  0  0  0
    0.7086    0.5379   -0.5095 C   0  0  0  0  0  0  0  0  0  0  0  0
   -2.5892   -2.1033   -0.4077 N   0  0  0  0  0  0  0  0  0  0  0  0
   -2.7329   -3.3560    0.1079 C   0  0  0  0  0  0  0  0  0  0  0  0
   -3.6085   -4.0294   -0.6026 N   0  0  0  0  0  0  0  0  0  0  0  0
   -3.9690   -3.1382   -1.5709 C   0  0  0  0  0  0  0  0  0  0  0  0
   -3.3732   -1.9447   -1.5003 N   0  0  0  0  0  0  0  0  0  0  0  0
  1  2  1  0
  2  3  1  0
  2  4  1  0
  2  5  1  0
  5  6  1  1
  5  7  1  0
  7  8  1  1
  8  9  1  0
  9 10  2  0
 10 11  1  0
 11 12  2  0
 12 13  1  0
 13 14  2  0
 14 15  1  0
 15 16  2  0
 16 17  1  0
 17 18  2  0
 12 19  1  0
 19 20  2  0
  7 21  1  0
 21 22  1  0
 22 23  2  0
 23 24  1  0
 24 25  2  0
 20  9  1  0
 25 21  1  0
 18 13  1  0
M  END
