
     RDKit          3D

 24 26  0  0  0  0  0  0  0  0999 V2000
   -4.8333   -1.4918    2.1323 C   0  0  0  0  0  0  0  0  0  0  0  0
   -3.8611   -1.4031    0.9879 C   0  0  0  0  0  0  0  0  0  0  0  0
   -3.5143   -2.7181    0.3452 C   0  0  0  0  0  0  0  0  0  0  0  0
   -3.3578   -0.2182    0.5891 C   0  0  0  0  0  0  0  0  0  0  0  0
   -2.4023    0.0160   -0.5046 C   0  0  2  0  0  0  0  0  0  0  0  0
   -2.3670    1.3803   -1.1646 C   0  0  1  0  0  0  0  0  0  0  0  0
   -1.0921    2.0329   -1.5464 C   0  0  0  0  0  0  0  0  0  0  0  0
   -1.0338    2.8452   -2.4572 O   0  0  0  0  0  0  0  0  0  0  0  0
   -0.0559    1.6365   -0.7677 O   0  0  0  0  0  0  0  0  0  0  0  0
    1.1834    2.2215   -1.1569 C   0  0  0  0  0  0  0  0  0  0  0  0
    2.2224    1.5803   -0.3996 N   0  0  0  0  0  0  0  0  0  0  0  0
    2.8018    0.4036   -0.7504 C   0  0  0  0  0  0  0  0  0  0  0  0
    2.6057   -0.2833   -1.7359 O   0  0  0  0  0  0  0  0  0  0  0  0
    3.7553    0.0788    0.3118 C   0  0  0  0  0  0  0  0  0  0  0  0
    3.6888    1.0430    1.2336 C   0  0  0  0  0  0  0  0  0  0  0  0
    4.5036    1.0958    2.4704 C   0  0  0  0  0  0  0  0  0  0  0  0
    5.6563    0.0763    2.4038 C   0  0  0  0  0  0  0  0  0  0  0  0
    5.2167   -1.2696    1.8037 C   0  0  0  0  0  0  0  0  0  0  0  0
    4.6262   -1.1169    0.3895 C   0  0  0  0  0  0  0  0  0  0  0  0
    2.6966    2.0257    0.7910 C   0  0  0  0  0  0  0  0  0  0  0  0
    2.3969    3.0307    1.4080 O   0  0  0  0  0  0  0  0  0  0  0  0
   -2.8861    0.1747   -1.9373 C   0  0  0  0  0  0  0  0  0  0  0  0
   -4.3625    0.1484   -2.2582 C   0  0  0  0  0  0  0  0  0  0  0  0
   -2.0301   -0.4393   -3.0208 C   0  0  0  0  0  0  0  0  0  0  0  0
  1  2  1  0
  2  3  1  0
  2  4  2  3
  5  4  1  1
  5  6  1  0
  6  7  1  6
  7  8  2  0
  7  9  1  0
  9 10  1  0
 10 11  1  0
 11 12  1  0
 12 13  2  0
 12 14  1  0
 14 15  2  0
 15 16  1  0
 16 17  1  0
 17 18  1  0
 18 19  1  0
 15 20  1  0
 20 21  2  0
  6 22  1  0
 22 23  1  0
 22 24  1  0
 22  5  1  0
 20 11  1  0
 19 14  1  0
M  END
