
     RDKit          3D

 26 27  0  0  0  0  0  0  0  0999 V2000
    4.0004    0.4753   -3.3520 N   0  0  0  0  0  0  0  0  0  0  0  0
    3.2221    0.2900   -2.5104 C   0  0  0  0  0  0  0  0  0  0  0  0
    2.3320    0.0521   -1.4131 C   0  0  0  0  0  0  0  0  0  0  0  0
    1.0109    0.0442   -1.6214 N   0  0  0  0  0  0  0  0  0  0  0  0
    0.4738   -0.2060   -0.3957 N   0  0  0  0  0  0  0  0  0  0  0  0
   -0.9275   -0.2085   -0.2280 C   0  0  0  0  0  0  0  0  0  0  0  0
   -1.7243   -1.0561   -1.0135 C   0  0  0  0  0  0  0  0  0  0  0  0
   -1.0785   -2.2212   -2.1190 Cl  0  0  0  0  0  0  0  0  0  0  0  0
   -3.1165   -1.0526   -0.8576 C   0  0  0  0  0  0  0  0  0  0  0  0
   -3.7342   -0.2117    0.0781 C   0  0  0  0  0  0  0  0  0  0  0  0
   -5.2368   -0.1944    0.2251 C   0  0  0  0  0  0  0  0  0  0  0  0
   -5.8220    0.7200   -0.5928 F   0  0  0  0  0  0  0  0  0  0  0  0
   -5.8118   -1.3918   -0.0698 F   0  0  0  0  0  0  0  0  0  0  0  0
   -5.6394    0.1129    1.4881 F   0  0  0  0  0  0  0  0  0  0  0  0
   -2.9318    0.6459    0.8434 C   0  0  0  0  0  0  0  0  0  0  0  0
   -1.5386    0.6547    0.6939 C   0  0  0  0  0  0  0  0  0  0  0  0
   -0.6813    1.8566    1.5961 Cl  0  0  0  0  0  0  0  0  0  0  0  0
    1.4599   -0.4218    0.5692 C   0  0  0  0  0  0  0  0  0  0  0  0
    1.2231   -0.7899    1.8531 N   0  0  0  0  0  0  0  0  0  0  0  0
    2.6565   -0.2154   -0.0768 C   0  0  0  0  0  0  0  0  0  0  0  0
    4.2948   -0.3289    0.6246 S   0  0  0  0  0  4  0  0  0  0  0  0
    4.1605   -1.1072    1.9069 O   0  0  0  0  0  0  0  0  0  0  0  0
    4.5004    1.4391    0.9854 C   0  0  0  0  0  0  0  0  0  0  0  0
    3.5628    1.9189    1.8390 F   0  0  0  0  0  0  0  0  0  0  0  0
    5.7142    1.7006    1.5331 F   0  0  0  0  0  0  0  0  0  0  0  0
    4.4172    2.1810   -0.1503 F   0  0  0  0  0  0  0  0  0  0  0  0
  1  2  3  0
  2  3  1  0
  3  4  2  0
  4  5  1  0
  5  6  1  0
  6  7  2  0
  7  8  1  0
  7  9  1  0
  9 10  2  0
 10 11  1  0
 11 12  1  0
 11 13  1  0
 11 14  1  0
 10 15  1  0
 15 16  2  0
 16 17  1  0
  5 18  1  0
 18 19  1  0
 18 20  2  0
 20 21  1  0
 21 22  2  0
 21 23  1  1
 23 24  1  0
 23 25  1  0
 23 26  1  0
 20  3  1  0
 16  6  1  0
M  END
