
     RDKit          3D

 20 21  0  0  0  0  0  0  0  0999 V2000
   -1.4905    1.0298    2.0003 C   0  0  0  0  0  0  0  0  0  0  0  0
   -2.4215    0.0748    1.2688 C   0  0  0  0  0  0  0  0  0  0  0  0
   -2.3107    0.2139   -0.1840 N   0  0  0  0  0  0  0  0  0  0  0  0
   -3.1718    1.2140   -0.8172 C   0  0  0  0  0  0  0  0  0  0  0  0
   -4.4783    0.6017   -1.2965 C   0  0  0  0  0  0  0  0  0  0  0  0
   -1.4106   -0.4812   -0.9967 C   0  0  0  0  0  0  0  0  0  0  0  0
   -1.3693   -0.2787   -2.2150 O   0  0  0  0  0  0  0  0  0  0  0  0
   -0.4934   -1.5390   -0.3428 C   0  0  1  0  0  0  0  0  0  0  0  0
   -1.2089   -2.8867   -0.3776 C   0  0  0  0  0  0  0  0  0  0  0  0
    0.7315   -1.6848   -1.0812 O   0  0  0  0  0  0  0  0  0  0  0  0
    1.8036   -1.2033   -0.3678 C   0  0  0  0  0  0  0  0  0  0  0  0
    2.3398   -2.0076    0.6424 C   0  0  0  0  0  0  0  0  0  0  0  0
    3.4203   -1.5506    1.3887 C   0  0  0  0  0  0  0  0  0  0  0  0
    3.9727   -0.2984    1.1163 C   0  0  0  0  0  0  0  0  0  0  0  0
    3.4649    0.5078    0.0830 C   0  0  0  0  0  0  0  0  0  0  0  0
    4.0369    1.7595   -0.2002 C   0  0  0  0  0  0  0  0  0  0  0  0
    3.5446    2.5552   -1.2351 C   0  0  0  0  0  0  0  0  0  0  0  0
    2.4769    2.1079   -2.0043 C   0  0  0  0  0  0  0  0  0  0  0  0
    1.8972    0.8671   -1.7355 C   0  0  0  0  0  0  0  0  0  0  0  0
    2.3691    0.0501   -0.6872 C   0  0  0  0  0  0  0  0  0  0  0  0
  1  2  1  0
  2  3  1  0
  3  4  1  0
  4  5  1  0
  3  6  1  0
  6  7  2  0
  6  8  1  0
  8  9  1  6
  8 10  1  0
 10 11  1  0
 11 12  2  0
 12 13  1  0
 13 14  2  0
 14 15  1  0
 15 16  2  0
 16 17  1  0
 17 18  2  0
 18 19  1  0
 19 20  2  0
 20 11  1  0
 20 15  1  0
M  END
