
     RDKit          3D

 12 11  0  0  0  0  0  0  0  0999 V2000
    2.1008    0.2097    2.0950 C   0  0  0  0  0  0  0  0  0  0  0  0
    2.2380    0.1281    0.5711 C   0  0  1  0  0  0  0  0  0  0  0  0
    3.2228   -0.9958    0.2072 C   0  0  0  0  0  0  0  0  0  0  0  0
    3.7543   -0.9084   -1.2062 C   0  0  0  0  0  0  0  0  0  0  0  0
    3.6354    0.0649   -1.9427 O   0  0  0  0  0  0  0  0  0  0  0  0
    0.8705   -0.1153   -0.1061 C   0  0  0  0  0  0  0  0  0  0  0  0
   -0.1058    1.0521    0.0643 C   0  0  0  0  0  0  0  0  0  0  0  0
   -1.3657    0.9553   -0.8120 C   0  0  0  0  0  0  0  0  0  0  0  0
   -2.3299   -0.2192   -0.5393 C   0  0  0  0  0  0  0  0  0  0  0  0
   -2.7258   -0.3262    0.9346 C   0  0  0  0  0  0  0  0  0  0  0  0
   -3.5851   -0.0540   -1.4055 C   0  0  0  0  0  0  0  0  0  0  0  0
   -1.7015   -1.4413   -0.9294 O   0  0  0  0  0  0  0  0  0  0  0  0
  2  1  1  1
  2  3  1  0
  3  4  1  0
  4  5  2  0
  2  6  1  0
  6  7  1  0
  7  8  1  0
  8  9  1  0
  9 10  1  0
  9 11  1  0
  9 12  1  0
M  END
