
     RDKit          3D

 22 23  0  0  0  0  0  0  0  0999 V2000
   -5.0930    1.1567   -2.3174 C   0  0  0  0  0  0  0  0  0  0  0  0
   -4.0351    0.4160   -1.7095 O   0  0  0  0  0  0  0  0  0  0  0  0
   -4.4373   -0.7386   -1.1003 C   0  0  0  0  0  0  0  0  0  0  0  0
   -5.5913   -1.1517   -1.0977 O   0  0  0  0  0  0  0  0  0  0  0  0
   -3.2394   -1.4717   -0.4870 C   0  0  2  0  0  0  0  0  0  0  0  0
   -3.7261   -2.5633    0.4614 C   0  0  0  0  0  0  0  0  0  0  0  0
   -2.4561   -0.5314    0.2518 O   0  0  0  0  0  0  0  0  0  0  0  0
   -1.0971   -0.6657    0.2472 C   0  0  0  0  0  0  0  0  0  0  0  0
   -0.3827   -1.8076   -0.1098 C   0  0  0  0  0  0  0  0  0  0  0  0
    1.0156   -1.8050   -0.0539 C   0  0  0  0  0  0  0  0  0  0  0  0
    1.7106   -0.6655    0.3577 C   0  0  0  0  0  0  0  0  0  0  0  0
    3.0837   -0.7917    0.3803 O   0  0  0  0  0  0  0  0  0  0  0  0
    3.8328    0.3586    0.4220 C   0  0  0  0  0  0  0  0  0  0  0  0
    4.3729    0.7353    1.6553 C   0  0  0  0  0  0  0  0  0  0  0  0
    5.1704    1.8768    1.7420 C   0  0  0  0  0  0  0  0  0  0  0  0
    5.4378    2.6233    0.5939 C   0  0  0  0  0  0  0  0  0  0  0  0
    6.4219    4.0304    0.7054 Cl  0  0  0  0  0  0  0  0  0  0  0  0
    4.9237    2.2371   -0.6436 C   0  0  0  0  0  0  0  0  0  0  0  0
    4.1259    1.0952   -0.7322 C   0  0  0  0  0  0  0  0  0  0  0  0
    3.5387    0.6222   -2.2842 Cl  0  0  0  0  0  0  0  0  0  0  0  0
    0.9967    0.4716    0.7364 C   0  0  0  0  0  0  0  0  0  0  0  0
   -0.4005    0.4654    0.6805 C   0  0  0  0  0  0  0  0  0  0  0  0
  1  2  1  0
  2  3  1  0
  3  4  2  0
  3  5  1  0
  5  6  1  1
  5  7  1  0
  7  8  1  0
  8  9  2  0
  9 10  1  0
 10 11  2  0
 11 12  1  0
 12 13  1  0
 13 14  2  0
 14 15  1  0
 15 16  2  0
 16 17  1  0
 16 18  1  0
 18 19  2  0
 19 20  1  0
 11 21  1  0
 21 22  2  0
 22  8  1  0
 19 13  1  0
M  END
