
     RDKit          3D

 22 23  0  0  0  0  0  0  0  0999 V2000
    6.0675    2.5735   -0.2153 C   0  0  0  0  0  0  0  0  0  0  0  0
    5.2151    1.4960    0.1761 O   0  0  0  0  0  0  0  0  0  0  0  0
    4.1491    1.2991   -0.6599 C   0  0  0  0  0  0  0  0  0  0  0  0
    3.9174    1.9796   -1.6508 O   0  0  0  0  0  0  0  0  0  0  0  0
    3.2953    0.1344   -0.1466 C   0  0  2  0  0  0  0  0  0  0  0  0
    4.1005   -1.1582   -0.2331 C   0  0  0  0  0  0  0  0  0  0  0  0
    2.1364    0.0234   -0.9758 O   0  0  0  0  0  0  0  0  0  0  0  0
    0.9672   -0.4231   -0.4299 C   0  0  0  0  0  0  0  0  0  0  0  0
    0.8105   -1.0141    0.8239 C   0  0  0  0  0  0  0  0  0  0  0  0
   -0.4553   -1.4323    1.2491 C   0  0  0  0  0  0  0  0  0  0  0  0
   -1.5679   -1.2528    0.4277 C   0  0  0  0  0  0  0  0  0  0  0  0
   -2.7726   -1.7151    0.9062 O   0  0  0  0  0  0  0  0  0  0  0  0
   -3.8783   -0.9200    0.6994 C   0  0  0  0  0  0  0  0  0  0  0  0
   -3.8980    0.4084    1.1417 C   0  0  0  0  0  0  0  0  0  0  0  0
   -5.0441    1.1844    0.9602 C   0  0  0  0  0  0  0  0  0  0  0  0
   -6.1697    0.6272    0.3533 C   0  0  0  0  0  0  0  0  0  0  0  0
   -7.5802    1.5877    0.1330 Cl  0  0  0  0  0  0  0  0  0  0  0  0
   -6.1657   -0.7007   -0.0703 C   0  0  0  0  0  0  0  0  0  0  0  0
   -5.0199   -1.4769    0.1107 C   0  0  0  0  0  0  0  0  0  0  0  0
   -5.0453   -3.1192   -0.4197 Cl  0  0  0  0  0  0  0  0  0  0  0  0
   -1.4137   -0.6935   -0.8402 C   0  0  0  0  0  0  0  0  0  0  0  0
   -0.1486   -0.2764   -1.2601 C   0  0  0  0  0  0  0  0  0  0  0  0
  1  2  1  0
  2  3  1  0
  3  4  2  0
  3  5  1  0
  5  6  1  6
  5  7  1  0
  7  8  1  0
  8  9  2  0
  9 10  1  0
 10 11  2  0
 11 12  1  0
 12 13  1  0
 13 14  2  0
 14 15  1  0
 15 16  2  0
 16 17  1  0
 16 18  1  0
 18 19  2  0
 19 20  1  0
 11 21  1  0
 21 22  2  0
 22  8  1  0
 19 13  1  0
M  END
