
     RDKit          3D

 24 26  0  0  0  0  0  0  0  0999 V2000
    4.7524   -0.3793   -0.6675 C   0  0  0  0  0  0  0  0  0  0  0  0
    3.9876    0.8871   -0.9408 C   0  0  0  0  0  0  0  0  0  0  0  0
    4.5317    1.7252   -2.0653 C   0  0  0  0  0  0  0  0  0  0  0  0
    2.8920    1.2617   -0.2526 C   0  0  0  0  0  0  0  0  0  0  0  0
    2.2528    0.5389    0.8564 C   0  0  2  0  0  0  0  0  0  0  0  0
    1.5083    1.3291    1.9153 C   0  0  1  0  0  0  0  0  0  0  0  0
    0.2045    0.8527    2.4293 C   0  0  0  0  0  0  0  0  0  0  0  0
   -0.0705    0.8634    3.6200 O   0  0  0  0  0  0  0  0  0  0  0  0
   -0.6180    0.4659    1.4242 O   0  0  0  0  0  0  0  0  0  0  0  0
   -1.8836    0.0077    1.8924 C   0  0  0  0  0  0  0  0  0  0  0  0
   -2.6703   -0.3414    0.7423 N   0  0  0  0  0  0  0  0  0  0  0  0
   -3.4608    0.5292    0.0641 C   0  0  0  0  0  0  0  0  0  0  0  0
   -3.6981    1.6986    0.3050 O   0  0  0  0  0  0  0  0  0  0  0  0
   -4.0078   -0.2100   -1.0758 C   0  0  0  0  0  0  0  0  0  0  0  0
   -3.5222   -1.4530   -1.0327 C   0  0  0  0  0  0  0  0  0  0  0  0
   -3.7984   -2.5088   -2.0338 C   0  0  0  0  0  0  0  0  0  0  0  0
   -4.4296   -1.9014   -3.2996 C   0  0  0  0  0  0  0  0  0  0  0  0
   -5.4877   -0.8328   -2.9773 C   0  0  0  0  0  0  0  0  0  0  0  0
   -4.9320    0.3117   -2.1091 C   0  0  0  0  0  0  0  0  0  0  0  0
   -2.6405   -1.5541    0.1330 C   0  0  0  0  0  0  0  0  0  0  0  0
   -2.0222   -2.5543    0.4457 O   0  0  0  0  0  0  0  0  0  0  0  0
    2.8098    0.6232    2.2681 C   0  0  0  0  0  0  0  0  0  0  0  0
    4.0011    1.5000    2.5755 C   0  0  0  0  0  0  0  0  0  0  0  0
    2.7752   -0.6423    3.0920 C   0  0  0  0  0  0  0  0  0  0  0  0
  1  2  1  0
  2  3  1  0
  2  4  2  3
  5  4  1  6
  5  6  1  0
  6  7  1  1
  7  8  2  0
  7  9  1  0
  9 10  1  0
 10 11  1  0
 11 12  1  0
 12 13  2  0
 12 14  1  0
 14 15  2  0
 15 16  1  0
 16 17  1  0
 17 18  1  0
 18 19  1  0
 15 20  1  0
 20 21  2  0
  6 22  1  0
 22 23  1  0
 22 24  1  0
 22  5  1  0
 20 11  1  0
 19 14  1  0
M  END
