
     RDKit          3D

 20 21  0  0  0  0  0  0  0  0999 V2000
   -2.5261   -1.5361   -0.8171 C   0  0  0  0  0  0  0  0  0  0  0  0
   -2.6481   -0.6002    0.3975 C   0  0  0  0  0  0  0  0  0  0  0  0
   -4.1231   -0.1202    0.4667 C   0  0  0  0  0  0  0  0  0  0  0  0
   -2.3981   -1.3897    1.6983 C   0  0  0  0  0  0  0  0  0  0  0  0
   -1.7001    0.6448    0.2746 C   0  0  2  0  0  0  0  0  0  0  0  0
   -2.3055    1.5393   -0.6881 O   0  0  0  0  0  0  0  0  0  0  0  0
   -0.2255    0.4400   -0.1903 C   0  0  2  0  0  0  0  0  0  0  0  0
    0.6101   -0.5662    0.6179 C   0  0  0  0  0  0  0  0  0  0  0  0
    2.0192   -0.7520    0.0895 C   0  0  0  0  0  0  0  0  0  0  0  0
    3.0980   -0.0972    0.7004 C   0  0  0  0  0  0  0  0  0  0  0  0
    4.3926   -0.2492    0.2000 C   0  0  0  0  0  0  0  0  0  0  0  0
    4.6145   -1.0580   -0.9117 C   0  0  0  0  0  0  0  0  0  0  0  0
    6.2096   -1.2470   -1.5282 Cl  0  0  0  0  0  0  0  0  0  0  0  0
    3.5523   -1.7151   -1.5289 C   0  0  0  0  0  0  0  0  0  0  0  0
    2.2566   -1.5618   -1.0309 C   0  0  0  0  0  0  0  0  0  0  0  0
    0.4503    1.7458   -0.1993 N   0  0  0  0  0  0  0  0  0  0  0  0
    1.0161    2.3829   -1.2609 C   0  0  0  0  0  0  0  0  0  0  0  0
    1.4866    3.5461   -0.8736 N   0  0  0  0  0  0  0  0  0  0  0  0
    1.1836    3.5743    0.4566 C   0  0  0  0  0  0  0  0  0  0  0  0
    0.5366    2.4999    0.9173 N   0  0  0  0  0  0  0  0  0  0  0  0
  1  2  1  0
  2  3  1  0
  2  4  1  0
  2  5  1  0
  5  6  1  6
  5  7  1  0
  7  8  1  1
  8  9  1  0
  9 10  2  0
 10 11  1  0
 11 12  2  0
 12 13  1  0
 12 14  1  0
 14 15  2  0
  7 16  1  0
 16 17  1  0
 17 18  2  0
 18 19  1  0
 19 20  2  0
 15  9  1  0
 20 16  1  0
M  END
