
     RDKit          3D

 19 19  0  0  0  0  0  0  0  0999 V2000
   -3.1321    3.2652   -0.6175 C   0  0  0  0  0  0  0  0  0  0  0  0
   -1.6370    3.2999   -0.3636 C   0  0  0  0  0  0  0  0  0  0  0  0
   -1.2750    2.2674    0.5673 O   0  0  0  0  0  0  0  0  0  0  0  0
   -0.9895    1.0418    0.0284 C   0  0  0  0  0  0  0  0  0  0  0  0
   -1.0137    0.7978   -1.1700 O   0  0  0  0  0  0  0  0  0  0  0  0
   -0.6079    0.0702    1.1423 C   0  0  2  0  0  0  0  0  0  0  0  0
    1.1581    0.1719    1.5663 S   0  0  0  0  0  0  0  0  0  0  0  0
    2.2051    0.6278   -0.1988 P   0  0  0  0  0  5  0  0  0  0  0  0
    2.2638    2.4856   -0.8040 S   0  0  0  0  0  0  0  0  0  0  0  0
    1.6785   -0.4161   -1.3226 O   0  0  0  0  0  0  0  0  0  0  0  0
    2.2818   -0.4293   -2.6007 C   0  0  0  0  0  0  0  0  0  0  0  0
    3.7003    0.0126    0.0090 O   0  0  0  0  0  0  0  0  0  0  0  0
    4.5814    0.6295    0.9276 C   0  0  0  0  0  0  0  0  0  0  0  0
   -1.0602   -1.3740    0.9681 C   0  0  0  0  0  0  0  0  0  0  0  0
   -1.5658   -2.0685    2.0849 C   0  0  0  0  0  0  0  0  0  0  0  0
   -1.9743   -3.4002    1.9838 C   0  0  0  0  0  0  0  0  0  0  0  0
   -1.8782   -4.0667    0.7666 C   0  0  0  0  0  0  0  0  0  0  0  0
   -1.3697   -3.4030   -0.3459 C   0  0  0  0  0  0  0  0  0  0  0  0
   -0.9600   -2.0703   -0.2454 C   0  0  0  0  0  0  0  0  0  0  0  0
  1  2  1  0
  2  3  1  0
  3  4  1  0
  4  5  2  0
  4  6  1  0
  6  7  1  6
  7  8  1  0
  8  9  2  0
  8 10  1  0
 10 11  1  0
  8 12  1  0
 12 13  1  0
  6 14  1  0
 14 15  2  0
 15 16  1  0
 16 17  2  0
 17 18  1  0
 18 19  2  0
 19 14  1  0
M  END
