
     RDKit          3D

 20 21  0  0  0  0  0  0  0  0999 V2000
   -3.3055    0.5839    0.0586 C   0  0  0  0  0  0  0  0  0  0  0  0
   -2.5123   -0.7108   -0.2050 C   0  0  0  0  0  0  0  0  0  0  0  0
   -3.4754   -1.6743   -0.9493 C   0  0  0  0  0  0  0  0  0  0  0  0
   -2.1734   -1.3740    1.1389 C   0  0  0  0  0  0  0  0  0  0  0  0
   -1.2455   -0.4833   -1.1028 C   0  0  1  0  0  0  0  0  0  0  0  0
   -1.5968    0.2890   -2.2687 O   0  0  0  0  0  0  0  0  0  0  0  0
    0.0640    0.1399   -0.5293 C   0  0  2  0  0  0  0  0  0  0  0  0
    0.8915   -0.8538    0.3201 C   0  0  0  0  0  0  0  0  0  0  0  0
    2.3802   -0.5719    0.2666 C   0  0  0  0  0  0  0  0  0  0  0  0
    2.9855    0.2380    1.2373 C   0  0  0  0  0  0  0  0  0  0  0  0
    4.3531    0.5141    1.1772 C   0  0  0  0  0  0  0  0  0  0  0  0
    5.1218   -0.0184    0.1454 C   0  0  0  0  0  0  0  0  0  0  0  0
    6.8070    0.3203    0.0705 Cl  0  0  0  0  0  0  0  0  0  0  0  0
    4.5342   -0.8236   -0.8278 C   0  0  0  0  0  0  0  0  0  0  0  0
    3.1661   -1.0988   -0.7690 C   0  0  0  0  0  0  0  0  0  0  0  0
   -0.1297    1.4378    0.0963 N   0  0  0  0  0  0  0  0  0  0  0  0
   -0.2191    2.6443   -0.5336 C   0  0  0  0  0  0  0  0  0  0  0  0
   -0.3344    3.6020    0.3571 N   0  0  0  0  0  0  0  0  0  0  0  0
   -0.3078    2.9232    1.5397 C   0  0  0  0  0  0  0  0  0  0  0  0
   -0.1847    1.5971    1.4359 N   0  0  0  0  0  0  0  0  0  0  0  0
  1  2  1  0
  2  3  1  0
  2  4  1  0
  2  5  1  0
  5  6  1  6
  5  7  1  0
  7  8  1  1
  8  9  1  0
  9 10  2  0
 10 11  1  0
 11 12  2  0
 12 13  1  0
 12 14  1  0
 14 15  2  0
  7 16  1  0
 16 17  1  0
 17 18  2  0
 18 19  1  0
 19 20  2  0
 15  9  1  0
 20 16  1  0
M  END
