
     RDKit          3D

 25 27  0  0  0  0  0  0  0  0999 V2000
   -4.6364   -0.0923   -0.6016 C   0  0  0  0  0  0  0  0  0  0  0  0
   -3.3350   -0.8219   -0.2210 C   0  0  0  0  0  0  0  0  0  0  0  0
   -2.5434   -1.1143   -1.5067 C   0  0  0  0  0  0  0  0  0  0  0  0
   -3.7495   -2.1831    0.3940 C   0  0  0  0  0  0  0  0  0  0  0  0
   -2.4722   -0.0537    0.8417 C   0  0  2  0  0  0  0  0  0  0  0  0
   -3.2510    0.1735    2.0327 O   0  0  0  0  0  0  0  0  0  0  0  0
   -1.7019    1.2449    0.4454 C   0  0  1  0  0  0  0  0  0  0  0  0
   -0.7279    1.0137   -0.5783 O   0  0  0  0  0  0  0  0  0  0  0  0
    0.5213    0.5895   -0.2255 C   0  0  0  0  0  0  0  0  0  0  0  0
    1.4052    0.4579   -1.2981 C   0  0  0  0  0  0  0  0  0  0  0  0
    2.7202    0.0279   -1.0942 C   0  0  0  0  0  0  0  0  0  0  0  0
    3.1840   -0.2855    0.1907 C   0  0  0  0  0  0  0  0  0  0  0  0
    4.5664   -0.7401    0.4112 C   0  0  0  0  0  0  0  0  0  0  0  0
    4.8346   -1.9373    1.0960 C   0  0  0  0  0  0  0  0  0  0  0  0
    6.1470   -2.3700    1.3050 C   0  0  0  0  0  0  0  0  0  0  0  0
    7.2148   -1.6112    0.8329 C   0  0  0  0  0  0  0  0  0  0  0  0
    6.9716   -0.4213    0.1518 C   0  0  0  0  0  0  0  0  0  0  0  0
    5.6586    0.0095   -0.0573 C   0  0  0  0  0  0  0  0  0  0  0  0
    2.2844   -0.1527    1.2597 C   0  0  0  0  0  0  0  0  0  0  0  0
    0.9663    0.2799    1.0573 C   0  0  0  0  0  0  0  0  0  0  0  0
   -2.5937    2.3193    0.0020 N   0  0  0  0  0  0  0  0  0  0  0  0
   -2.5322    3.0659   -1.1348 C   0  0  0  0  0  0  0  0  0  0  0  0
   -3.4882    3.9662   -1.1242 N   0  0  0  0  0  0  0  0  0  0  0  0
   -4.1105    3.7450    0.0693 C   0  0  0  0  0  0  0  0  0  0  0  0
   -3.6029    2.7487    0.8014 N   0  0  0  0  0  0  0  0  0  0  0  0
  1  2  1  0
  2  3  1  0
  2  4  1  0
  2  5  1  0
  5  6  1  1
  5  7  1  0
  7  8  1  6
  8  9  1  0
  9 10  2  0
 10 11  1  0
 11 12  2  0
 12 13  1  0
 13 14  2  0
 14 15  1  0
 15 16  2  0
 16 17  1  0
 17 18  2  0
 12 19  1  0
 19 20  2  0
  7 21  1  0
 21 22  1  0
 22 23  2  0
 23 24  1  0
 24 25  2  0
 20  9  1  0
 25 21  1  0
 18 13  1  0
M  END
