
     RDKit          3D

 23 24  0  0  0  0  0  0  0  0999 V2000
    5.6186   -2.2820    1.4609 C   0  0  0  0  0  0  0  0  0  0  0  0
    5.0263   -1.6657    0.2029 C   0  0  0  0  0  0  0  0  0  0  0  0
    3.9191   -0.6452    0.4835 C   0  0  0  0  0  0  0  0  0  0  0  0
    2.6546   -1.2726    1.0769 C   0  0  0  0  0  0  0  0  0  0  0  0
    1.5603   -0.2479    1.3933 C   0  0  0  0  0  0  0  0  0  0  0  0
    1.0226    0.5576    0.2011 C   0  0  1  0  0  0  0  0  0  0  0  0
    0.3972   -0.3339   -0.8692 C   0  0  0  0  0  0  0  0  0  0  0  0
    0.0065    1.4351    0.7316 O   0  0  0  0  0  0  0  0  0  0  0  0
   -0.2700    2.5557    0.0123 C   0  0  0  0  0  0  0  0  0  0  0  0
    0.3208    2.9124   -1.0004 O   0  0  0  0  0  0  0  0  0  0  0  0
   -1.4191    3.3371    0.6432 C   0  0  0  0  0  0  0  0  0  0  0  0
   -2.6289    2.6411    0.9153 O   0  0  0  0  0  0  0  0  0  0  0  0
   -3.1182    1.9321   -0.1628 C   0  0  0  0  0  0  0  0  0  0  0  0
   -3.4140    2.5912   -1.3601 C   0  0  0  0  0  0  0  0  0  0  0  0
   -3.9197    1.8678   -2.4311 C   0  0  0  0  0  0  0  0  0  0  0  0
   -4.1414    0.4970   -2.2969 C   0  0  0  0  0  0  0  0  0  0  0  0
   -4.7702   -0.3304   -3.6846 Cl  0  0  0  0  0  0  0  0  0  0  0  0
   -3.8678   -0.1777   -1.0798 C   0  0  0  0  0  0  0  0  0  0  0  0
   -4.0744   -1.5625   -0.8809 C   0  0  0  0  0  0  0  0  0  0  0  0
   -3.7830   -2.1589    0.3390 C   0  0  0  0  0  0  0  0  0  0  0  0
   -3.2871   -1.3561    1.3406 C   0  0  0  0  0  0  0  0  0  0  0  0
   -3.0711   -0.0335    1.1964 N   0  0  0  0  0  0  0  0  0  0  0  0
   -3.3542    0.5582    0.0126 C   0  0  0  0  0  0  0  0  0  0  0  0
  1  2  1  0
  2  3  1  0
  3  4  1  0
  4  5  1  0
  5  6  1  0
  6  7  1  6
  6  8  1  0
  8  9  1  0
  9 10  2  0
  9 11  1  0
 11 12  1  0
 12 13  1  0
 13 14  2  0
 14 15  1  0
 15 16  2  0
 16 17  1  0
 16 18  1  0
 18 19  2  0
 19 20  1  0
 20 21  2  0
 21 22  1  0
 22 23  2  0
 23 13  1  0
 23 18  1  0
M  END
