
     RDKit          3D

 26 28  0  0  0  0  0  0  0  0999 V2000
   -6.4200    1.5904    0.3382 C   0  0  0  0  0  0  0  0  0  0  0  0
   -5.1624    0.9522   -0.2009 C   0  0  0  0  0  0  0  0  0  0  0  0
   -5.2079    0.7355   -1.6971 C   0  0  0  0  0  0  0  0  0  0  0  0
   -3.8453    1.3322    0.4639 C   0  0  2  0  0  0  0  0  0  0  0  0
   -2.6016    1.5564   -0.3079 C   0  0  0  0  0  0  0  0  0  0  0  0
   -2.5692    2.2403   -1.3195 O   0  0  0  0  0  0  0  0  0  0  0  0
   -1.5366    0.9645    0.2888 O   0  0  0  0  0  0  0  0  0  0  0  0
   -0.3056    1.1714   -0.4111 C   0  0  0  0  0  0  0  0  0  0  0  0
    0.8269    0.4716    0.3040 C   0  0  0  0  0  0  0  0  0  0  0  0
    0.6291   -0.7259    1.0085 C   0  0  0  0  0  0  0  0  0  0  0  0
    1.6969   -1.3673    1.6402 C   0  0  0  0  0  0  0  0  0  0  0  0
    2.9814   -0.8325    1.5581 C   0  0  0  0  0  0  0  0  0  0  0  0
    3.1985    0.3346    0.8253 C   0  0  0  0  0  0  0  0  0  0  0  0
    4.4347    0.9323    0.7205 O   0  0  0  0  0  0  0  0  0  0  0  0
    5.5098    0.1208    0.4369 C   0  0  0  0  0  0  0  0  0  0  0  0
    5.4933   -0.8226   -0.5942 C   0  0  0  0  0  0  0  0  0  0  0  0
    6.6305   -1.5907   -0.8490 C   0  0  0  0  0  0  0  0  0  0  0  0
    7.7843   -1.4044   -0.0863 C   0  0  0  0  0  0  0  0  0  0  0  0
    7.8059   -0.4454    0.9273 C   0  0  0  0  0  0  0  0  0  0  0  0
    6.6704    0.3235    1.1844 C   0  0  0  0  0  0  0  0  0  0  0  0
    2.1274    0.9920    0.2162 C   0  0  0  0  0  0  0  0  0  0  0  0
   -4.4465   -0.0381    0.7046 C   0  0  2  0  0  0  0  0  0  0  0  0
   -3.8717   -1.2710    0.1411 C   0  0  0  0  0  0  0  0  0  0  0  0
   -4.5221   -2.4060   -0.1606 C   0  0  0  0  0  0  0  0  0  0  0  0
   -6.2227   -2.5828    0.0750 Cl  0  0  0  0  0  0  0  0  0  0  0  0
   -3.6593   -3.7598   -0.8014 Cl  0  0  0  0  0  0  0  0  0  0  0  0
  1  2  1  0
  2  3  1  0
  2  4  1  0
  4  5  1  6
  5  6  2  0
  5  7  1  0
  7  8  1  0
  8  9  1  0
  9 10  2  0
 10 11  1  0
 11 12  2  0
 12 13  1  0
 13 14  1  0
 14 15  1  0
 15 16  2  0
 16 17  1  0
 17 18  2  0
 18 19  1  0
 19 20  2  0
 13 21  2  0
  4 22  1  0
 22 23  1  6
 23 24  2  3
 24 25  1  0
 24 26  1  0
 22  2  1  0
 21  9  1  0
 20 15  1  0
M  END
