
     RDKit          3D

 26 28  0  0  0  0  0  0  0  0999 V2000
   -5.4670   -1.0772   -2.8258 C   0  0  0  0  0  0  0  0  0  0  0  0
   -4.3273   -0.8636   -1.8518 C   0  0  0  0  0  0  0  0  0  0  0  0
   -4.8313   -0.5982   -0.4483 C   0  0  0  0  0  0  0  0  0  0  0  0
   -3.0911   -0.1333   -2.3690 C   0  0  0  0  0  0  0  0  0  0  0  0
   -2.3944    0.8994   -1.5676 C   0  0  0  0  0  0  0  0  0  0  0  0
   -2.9690    1.8788   -1.1190 O   0  0  0  0  0  0  0  0  0  0  0  0
   -1.0712    0.6348   -1.4529 O   0  0  0  0  0  0  0  0  0  0  0  0
   -0.3340    1.6130   -0.6951 C   0  0  2  0  0  0  0  0  0  0  0  0
    0.0692    2.7506   -1.5525 C   0  0  0  0  0  0  0  0  0  0  0  0
    0.3890    3.6357   -2.2347 N   0  0  0  0  0  0  0  0  0  0  0  0
    0.8778    0.9041   -0.1072 C   0  0  0  0  0  0  0  0  0  0  0  0
    1.6947    0.0759   -0.8981 C   0  0  0  0  0  0  0  0  0  0  0  0
    2.8039   -0.5691   -0.3471 C   0  0  0  0  0  0  0  0  0  0  0  0
    3.1203   -0.3887    0.9981 C   0  0  0  0  0  0  0  0  0  0  0  0
    2.3345    0.4524    1.7869 C   0  0  0  0  0  0  0  0  0  0  0  0
    2.5718    0.6486    3.1286 O   0  0  0  0  0  0  0  0  0  0  0  0
    3.8642    0.9381    3.5040 C   0  0  0  0  0  0  0  0  0  0  0  0
    4.6308    1.9210    2.8725 C   0  0  0  0  0  0  0  0  0  0  0  0
    5.9224    2.1900    3.3274 C   0  0  0  0  0  0  0  0  0  0  0  0
    6.4391    1.4895    4.4183 C   0  0  0  0  0  0  0  0  0  0  0  0
    5.6630    0.5246    5.0616 C   0  0  0  0  0  0  0  0  0  0  0  0
    4.3713    0.2538    4.6092 C   0  0  0  0  0  0  0  0  0  0  0  0
    1.2111    1.0814    1.2460 C   0  0  0  0  0  0  0  0  0  0  0  0
   -3.0051   -1.6256   -2.0548 C   0  0  0  0  0  0  0  0  0  0  0  0
   -2.2405   -2.1163   -0.8426 C   0  0  0  0  0  0  0  0  0  0  0  0
   -2.8623   -2.5718   -3.2284 C   0  0  0  0  0  0  0  0  0  0  0  0
  1  2  1  0
  2  3  1  0
  2  4  1  0
  4  5  1  0
  5  6  2  0
  5  7  1  0
  7  8  1  0
  8  9  1  6
  9 10  3  0
  8 11  1  0
 11 12  2  0
 12 13  1  0
 13 14  2  0
 14 15  1  0
 15 16  1  0
 16 17  1  0
 17 18  2  0
 18 19  1  0
 19 20  2  0
 20 21  1  0
 21 22  2  0
 15 23  2  0
  4 24  1  0
 24 25  1  0
 24 26  1  0
 24  2  1  0
 23 11  1  0
 22 17  1  0
M  END
