
     RDKit          3D

 24 25  0  0  0  0  0  0  0  0999 V2000
   -2.1538   -0.6009    1.7507 C   0  0  0  0  0  0  0  0  0  0  0  0
   -3.1650   -0.0689    0.7338 C   0  0  0  0  0  0  0  0  0  0  0  0
   -4.5755   -0.1419    1.3265 C   0  0  0  0  0  0  0  0  0  0  0  0
   -3.1234   -0.8442   -0.6012 C   0  0  0  0  0  0  0  0  0  0  0  0
   -1.7846   -0.7685   -1.3692 C   0  0  1  0  0  0  0  0  0  0  0  0
   -1.8254   -1.6663   -2.6129 C   0  0  0  0  0  0  0  0  0  0  0  0
   -1.3745    0.6517   -1.7366 C   0  0  0  0  0  0  0  0  0  0  0  0
   -2.4315    1.6111   -2.7076 S   0  0  0  0  0  0  0  0  0  0  0  0
   -1.3764    2.9415   -2.6750 C   0  0  0  0  0  0  0  0  0  0  0  0
   -0.2365    2.6732   -1.9552 C   0  0  0  0  0  0  0  0  0  0  0  0
   -0.2162    1.3519   -1.4078 C   0  0  0  0  0  0  0  0  0  0  0  0
    0.8089    0.7852   -0.6476 N   0  0  0  0  0  0  0  0  0  0  0  0
    1.9422    1.4441   -0.2079 C   0  0  0  0  0  0  0  0  0  0  0  0
    2.1711    2.6403   -0.3457 O   0  0  0  0  0  0  0  0  0  0  0  0
    2.8869    0.6046    0.5251 C   0  0  0  0  0  0  0  0  0  0  0  0
    3.7091    1.0608    1.5400 C   0  0  0  0  0  0  0  0  0  0  0  0
    4.4446   -0.0014    1.9584 N   0  0  0  0  0  0  0  0  0  0  0  0
    5.4399   -0.0128    3.0039 C   0  0  0  0  0  0  0  0  0  0  0  0
    4.1767   -1.1324    1.2868 N   0  0  0  0  0  0  0  0  0  0  0  0
    3.2478   -0.7721    0.3764 C   0  0  0  0  0  0  0  0  0  0  0  0
    2.7148   -1.7323   -0.6492 C   0  0  0  0  0  0  0  0  0  0  0  0
    3.2328   -2.9837   -0.5696 F   0  0  0  0  0  0  0  0  0  0  0  0
    2.9317   -1.2910   -1.9158 F   0  0  0  0  0  0  0  0  0  0  0  0
    1.3622   -1.8619   -0.5202 F   0  0  0  0  0  0  0  0  0  0  0  0
  1  2  1  0
  2  3  1  0
  2  4  1  0
  4  5  1  0
  5  6  1  6
  5  7  1  0
  7  8  1  0
  8  9  1  0
  9 10  2  0
 10 11  1  0
 11 12  1  0
 12 13  1  0
 13 14  2  0
 13 15  1  0
 15 16  2  0
 16 17  1  0
 17 18  1  0
 17 19  1  0
 19 20  2  0
 20 21  1  0
 21 22  1  0
 21 23  1  0
 21 24  1  0
 11  7  2  0
 20 15  1  0
M  END
