
     RDKit          3D

 22 23  0  0  0  0  0  0  0  0999 V2000
    6.3291    1.3325   -1.2875 C   0  0  0  0  0  0  0  0  0  0  0  0
    5.3458    0.8583   -0.3660 O   0  0  0  0  0  0  0  0  0  0  0  0
    4.2919    0.2170   -0.9594 C   0  0  0  0  0  0  0  0  0  0  0  0
    4.1725    0.0636   -2.1681 O   0  0  0  0  0  0  0  0  0  0  0  0
    3.2933   -0.2391    0.1100 C   0  0  2  0  0  0  0  0  0  0  0  0
    3.9465   -1.2990    0.9913 C   0  0  0  0  0  0  0  0  0  0  0  0
    2.1568   -0.8067   -0.5451 O   0  0  0  0  0  0  0  0  0  0  0  0
    0.9269   -0.6927    0.0367 C   0  0  0  0  0  0  0  0  0  0  0  0
    0.6624   -0.2714    1.3400 C   0  0  0  0  0  0  0  0  0  0  0  0
   -0.6563   -0.2118    1.8041 C   0  0  0  0  0  0  0  0  0  0  0  0
   -1.7135   -0.5636    0.9655 C   0  0  0  0  0  0  0  0  0  0  0  0
   -2.9784   -0.5044    1.5046 O   0  0  0  0  0  0  0  0  0  0  0  0
   -3.9777    0.0107    0.7086 C   0  0  0  0  0  0  0  0  0  0  0  0
   -3.8586    1.2873    0.1457 C   0  0  0  0  0  0  0  0  0  0  0  0
   -4.9010    1.8080   -0.6230 C   0  0  0  0  0  0  0  0  0  0  0  0
   -6.0630    1.0599   -0.8127 C   0  0  0  0  0  0  0  0  0  0  0  0
   -7.3455    1.7068   -1.7600 Cl  0  0  0  0  0  0  0  0  0  0  0  0
   -6.1984   -0.2025   -0.2379 C   0  0  0  0  0  0  0  0  0  0  0  0
   -5.1561   -0.7238    0.5304 C   0  0  0  0  0  0  0  0  0  0  0  0
   -5.3535   -2.2877    1.2334 Cl  0  0  0  0  0  0  0  0  0  0  0  0
   -1.4547   -1.0175   -0.3273 C   0  0  0  0  0  0  0  0  0  0  0  0
   -0.1370   -1.0742   -0.7868 C   0  0  0  0  0  0  0  0  0  0  0  0
  1  2  1  0
  2  3  1  0
  3  4  2  0
  3  5  1  0
  5  6  1  1
  5  7  1  0
  7  8  1  0
  8  9  2  0
  9 10  1  0
 10 11  2  0
 11 12  1  0
 12 13  1  0
 13 14  2  0
 14 15  1  0
 15 16  2  0
 16 17  1  0
 16 18  1  0
 18 19  2  0
 19 20  1  0
 11 21  1  0
 21 22  2  0
 22  8  1  0
 19 13  1  0
M  END
