
     RDKit          3D

 19 18  0  0  0  0  0  0  0  0999 V2000
    5.0230   -2.1481    2.7506 C   0  0  0  0  0  0  0  0  0  0  0  0
    4.1157   -1.0192    2.3000 C   0  0  0  0  0  0  0  0  0  0  0  0
    3.1350   -1.5630    1.4072 O   0  0  0  0  0  0  0  0  0  0  0  0
    2.2643   -0.6442    0.9037 C   0  0  0  0  0  0  0  0  0  0  0  0
    2.2952    0.5541    1.1383 O   0  0  0  0  0  0  0  0  0  0  0  0
    1.3038   -1.3207   -0.0418 C   0  0  0  0  0  0  0  0  0  0  0  0
   -0.0636   -0.6452   -0.1297 C   0  0  1  0  0  0  0  0  0  0  0  0
   -1.0074   -0.8756    1.4208 S   0  0  0  0  0  0  0  0  0  0  0  0
   -3.0216   -0.7183    0.8174 P   0  0  0  0  0  5  0  0  0  0  0  0
   -4.4011   -1.2255    2.1038 S   0  0  0  0  0  0  0  0  0  0  0  0
   -3.0965   -1.6109   -0.5446 O   0  0  0  0  0  0  0  0  0  0  0  0
   -4.3083   -1.6566   -1.2753 C   0  0  0  0  0  0  0  0  0  0  0  0
   -3.2575    0.7475    0.1640 O   0  0  0  0  0  0  0  0  0  0  0  0
   -3.3398    1.8708    1.0220 C   0  0  0  0  0  0  0  0  0  0  0  0
    0.0148    0.8242   -0.5333 C   0  0  0  0  0  0  0  0  0  0  0  0
   -0.5185    1.7608    0.0444 O   0  0  0  0  0  0  0  0  0  0  0  0
    0.7263    0.9371   -1.6955 O   0  0  0  0  0  0  0  0  0  0  0  0
    0.8842    2.2709   -2.2014 C   0  0  0  0  0  0  0  0  0  0  0  0
   -0.2752    2.6139   -3.1180 C   0  0  0  0  0  0  0  0  0  0  0  0
  1  2  1  0
  2  3  1  0
  3  4  1  0
  4  5  2  0
  4  6  1  0
  7  6  1  1
  7  8  1  0
  8  9  1  0
  9 10  2  0
  9 11  1  0
 11 12  1  0
  9 13  1  0
 13 14  1  0
  7 15  1  0
 15 16  2  0
 15 17  1  0
 17 18  1  0
 18 19  1  0
M  END
