
     RDKit          3D

 26 28  0  0  0  0  0  0  0  0999 V2000
   -5.7922   -0.4349    0.2255 C   0  0  0  0  0  0  0  0  0  0  0  0
   -4.2860   -0.3454    0.1596 C   0  0  0  0  0  0  0  0  0  0  0  0
   -3.6033   -0.8921    1.3930 C   0  0  0  0  0  0  0  0  0  0  0  0
   -3.5953    0.8142   -0.5445 C   0  0  2  0  0  0  0  0  0  0  0  0
   -4.3783    1.9266   -1.1068 C   0  0  0  0  0  0  0  0  0  0  0  0
   -4.1449    2.6033   -2.2432 C   0  0  0  0  0  0  0  0  0  0  0  0
   -5.1802    3.9099   -2.7060 Cl  0  0  0  0  0  0  0  0  0  0  0  0
   -2.8209    2.2309   -3.2848 Cl  0  0  0  0  0  0  0  0  0  0  0  0
   -3.6455   -0.5483   -1.2080 C   0  0  1  0  0  0  0  0  0  0  0  0
   -2.4202   -1.3687   -1.3606 C   0  0  0  0  0  0  0  0  0  0  0  0
   -2.4306   -2.5755   -1.1708 O   0  0  0  0  0  0  0  0  0  0  0  0
   -1.3593   -0.6169   -1.7401 O   0  0  0  0  0  0  0  0  0  0  0  0
   -0.1199   -1.3169   -1.8735 C   0  0  0  0  0  0  0  0  0  0  0  0
    0.7109   -1.0877   -0.6389 C   0  0  0  0  0  0  0  0  0  0  0  0
    0.5988   -1.9500    0.4625 C   0  0  0  0  0  0  0  0  0  0  0  0
    1.3450   -1.7240    1.6216 C   0  0  0  0  0  0  0  0  0  0  0  0
    2.2161   -0.6374    1.6895 C   0  0  0  0  0  0  0  0  0  0  0  0
    2.3424    0.2159    0.5919 C   0  0  0  0  0  0  0  0  0  0  0  0
    3.1673    1.3166    0.6223 O   0  0  0  0  0  0  0  0  0  0  0  0
    4.5066    1.0958    0.8637 C   0  0  0  0  0  0  0  0  0  0  0  0
    5.2130   -0.0003    0.3602 C   0  0  0  0  0  0  0  0  0  0  0  0
    6.5783   -0.1286    0.6241 C   0  0  0  0  0  0  0  0  0  0  0  0
    7.2405    0.8427    1.3763 C   0  0  0  0  0  0  0  0  0  0  0  0
    6.5405    1.9469    1.8608 C   0  0  0  0  0  0  0  0  0  0  0  0
    5.1751    2.0771    1.5989 C   0  0  0  0  0  0  0  0  0  0  0  0
    1.5760    0.0124   -0.5562 C   0  0  0  0  0  0  0  0  0  0  0  0
  1  2  1  0
  2  3  1  0
  2  4  1  0
  4  5  1  6
  5  6  2  3
  6  7  1  0
  6  8  1  0
  4  9  1  0
  9 10  1  1
 10 11  2  0
 10 12  1  0
 12 13  1  0
 13 14  1  0
 14 15  2  0
 15 16  1  0
 16 17  2  0
 17 18  1  0
 18 19  1  0
 19 20  1  0
 20 21  2  0
 21 22  1  0
 22 23  2  0
 23 24  1  0
 24 25  2  0
 18 26  2  0
  9  2  1  0
 26 14  1  0
 25 20  1  0
M  END
