
     RDKit          3D

 26 28  0  0  0  0  0  0  0  0999 V2000
   -5.0323   -0.8486    0.9331 C   0  0  0  0  0  0  0  0  0  0  0  0
   -4.2935   -0.1703    2.0622 C   0  0  0  0  0  0  0  0  0  0  0  0
   -4.2271   -1.0119    3.3154 C   0  0  0  0  0  0  0  0  0  0  0  0
   -4.4066    1.3438    2.1448 C   0  0  1  0  0  0  0  0  0  0  0  0
   -4.5277    2.0172    3.4484 C   0  0  0  0  0  0  0  0  0  0  0  0
   -5.6467    2.2056    4.1646 C   0  0  0  0  0  0  0  0  0  0  0  0
   -5.5825    3.0342    5.6788 Cl  0  0  0  0  0  0  0  0  0  0  0  0
   -7.1859    1.6366    3.6300 Cl  0  0  0  0  0  0  0  0  0  0  0  0
   -3.0851    0.7078    1.7609 C   0  0  2  0  0  0  0  0  0  0  0  0
   -2.5533    0.8384    0.3818 C   0  0  0  0  0  0  0  0  0  0  0  0
   -3.1421    1.4363   -0.5064 O   0  0  0  0  0  0  0  0  0  0  0  0
   -1.3581    0.2085    0.2631 O   0  0  0  0  0  0  0  0  0  0  0  0
   -0.7905    0.3038   -1.0454 C   0  0  0  0  0  0  0  0  0  0  0  0
    0.5851   -0.3108   -1.0058 C   0  0  0  0  0  0  0  0  0  0  0  0
    0.7421   -1.6883   -0.7901 C   0  0  0  0  0  0  0  0  0  0  0  0
    2.0154   -2.2593   -0.7379 C   0  0  0  0  0  0  0  0  0  0  0  0
    3.1467   -1.4609   -0.9042 C   0  0  0  0  0  0  0  0  0  0  0  0
    3.0001   -0.0919   -1.1363 C   0  0  0  0  0  0  0  0  0  0  0  0
    4.0705    0.7637   -1.2748 O   0  0  0  0  0  0  0  0  0  0  0  0
    5.1036    0.3580   -2.0887 C   0  0  0  0  0  0  0  0  0  0  0  0
    6.3993    0.5052   -1.5927 C   0  0  0  0  0  0  0  0  0  0  0  0
    7.4914    0.1460   -2.3829 C   0  0  0  0  0  0  0  0  0  0  0  0
    7.2860   -0.3452   -3.6727 C   0  0  0  0  0  0  0  0  0  0  0  0
    5.9902   -0.4712   -4.1767 C   0  0  0  0  0  0  0  0  0  0  0  0
    4.8962   -0.1124   -3.3880 C   0  0  0  0  0  0  0  0  0  0  0  0
    1.7282    0.4843   -1.1672 C   0  0  0  0  0  0  0  0  0  0  0  0
  1  2  1  0
  2  3  1  0
  2  4  1  0
  4  5  1  1
  5  6  2  3
  6  7  1  0
  6  8  1  0
  4  9  1  0
  9 10  1  6
 10 11  2  0
 10 12  1  0
 12 13  1  0
 13 14  1  0
 14 15  2  0
 15 16  1  0
 16 17  2  0
 17 18  1  0
 18 19  1  0
 19 20  1  0
 20 21  2  0
 21 22  1  0
 22 23  2  0
 23 24  1  0
 24 25  2  0
 18 26  2  0
  9  2  1  0
 26 14  1  0
 25 20  1  0
M  END
