
     RDKit          3D

 25 27  0  0  0  0  0  0  0  0999 V2000
   -3.5304    2.3193    0.7894 C   0  0  0  0  0  0  0  0  0  0  0  0
   -3.3426    0.9779    0.0333 C   0  0  0  0  0  0  0  0  0  0  0  0
   -2.7564    1.3184   -1.3478 C   0  0  0  0  0  0  0  0  0  0  0  0
   -4.7480    0.3753   -0.1514 C   0  0  0  0  0  0  0  0  0  0  0  0
   -2.3843    0.0576    0.8718 C   0  0  1  0  0  0  0  0  0  0  0  0
   -3.0085   -0.3479    2.1057 O   0  0  0  0  0  0  0  0  0  0  0  0
   -1.7365   -1.2000    0.2149 C   0  0  2  0  0  0  0  0  0  0  0  0
   -0.8051   -0.8438   -0.8155 O   0  0  0  0  0  0  0  0  0  0  0  0
    0.4874   -0.5555   -0.4869 C   0  0  0  0  0  0  0  0  0  0  0  0
    1.0318   -0.4942    0.7936 C   0  0  0  0  0  0  0  0  0  0  0  0
    2.3854   -0.1730    0.9684 C   0  0  0  0  0  0  0  0  0  0  0  0
    3.2223    0.0925   -0.1269 C   0  0  0  0  0  0  0  0  0  0  0  0
    4.6433    0.4253    0.0643 C   0  0  0  0  0  0  0  0  0  0  0  0
    5.0344    1.4714    0.9169 C   0  0  0  0  0  0  0  0  0  0  0  0
    6.3837    1.7873    1.0985 C   0  0  0  0  0  0  0  0  0  0  0  0
    7.3659    1.0608    0.4306 C   0  0  0  0  0  0  0  0  0  0  0  0
    7.0004    0.0198   -0.4189 C   0  0  0  0  0  0  0  0  0  0  0  0
    5.6506   -0.2941   -0.6003 C   0  0  0  0  0  0  0  0  0  0  0  0
    2.6591    0.0277   -1.4086 C   0  0  0  0  0  0  0  0  0  0  0  0
    1.3090   -0.2909   -1.5838 C   0  0  0  0  0  0  0  0  0  0  0  0
   -2.7147   -2.1481   -0.3266 N   0  0  0  0  0  0  0  0  0  0  0  0
   -3.5112   -2.9871    0.4003 C   0  0  0  0  0  0  0  0  0  0  0  0
   -4.2073   -3.7524   -0.4079 N   0  0  0  0  0  0  0  0  0  0  0  0
   -3.7895   -3.3507   -1.6437 C   0  0  0  0  0  0  0  0  0  0  0  0
   -2.8787   -2.3752   -1.6511 N   0  0  0  0  0  0  0  0  0  0  0  0
  1  2  1  0
  2  3  1  0
  2  4  1  0
  2  5  1  0
  5  6  1  1
  5  7  1  0
  7  8  1  6
  8  9  1  0
  9 10  2  0
 10 11  1  0
 11 12  2  0
 12 13  1  0
 13 14  2  0
 14 15  1  0
 15 16  2  0
 16 17  1  0
 17 18  2  0
 12 19  1  0
 19 20  2  0
  7 21  1  0
 21 22  1  0
 22 23  2  0
 23 24  1  0
 24 25  2  0
 20  9  1  0
 25 21  1  0
 18 13  1  0
M  END
