
     RDKit          3D

 25 27  0  0  0  0  0  0  0  0999 V2000
   -6.8845    0.5236    0.4289 C   0  0  0  0  0  0  0  0  0  0  0  0
   -6.1024    1.7548    0.0622 C   0  0  0  0  0  0  0  0  0  0  0  0
   -4.7637    1.8537    0.1781 C   0  0  0  0  0  0  0  0  0  0  0  0
   -3.8357    0.8217    0.6633 C   0  0  2  0  0  0  0  0  0  0  0  0
   -2.4274    0.7808    0.1052 C   0  0  2  0  0  0  0  0  0  0  0  0
   -3.4137   -0.3282   -0.2364 C   0  0  0  0  0  0  0  0  0  0  0  0
   -3.8834   -0.4047   -1.6696 C   0  0  0  0  0  0  0  0  0  0  0  0
   -3.2712   -1.6831    0.4151 C   0  0  0  0  0  0  0  0  0  0  0  0
   -1.2710    0.5185    0.9914 C   0  0  0  0  0  0  0  0  0  0  0  0
   -1.2653    0.8052    2.1788 O   0  0  0  0  0  0  0  0  0  0  0  0
   -0.2608   -0.0689    0.3048 O   0  0  0  0  0  0  0  0  0  0  0  0
    0.8754   -0.3808    1.1177 C   0  0  0  0  0  0  0  0  0  0  0  0
    1.9454   -1.0305    0.3096 C   0  0  0  0  0  0  0  0  0  0  0  0
    1.7856   -1.9108   -0.7407 C   0  0  0  0  0  0  0  0  0  0  0  0
    2.9856   -2.3038   -1.2340 O   0  0  0  0  0  0  0  0  0  0  0  0
    3.9477   -1.6736   -0.5005 C   0  0  0  0  0  0  0  0  0  0  0  0
    3.3536   -0.8875    0.4662 C   0  0  0  0  0  0  0  0  0  0  0  0
    5.3556   -1.9745   -0.8822 C   0  0  0  0  0  0  0  0  0  0  0  0
    6.3392   -0.8929   -0.4957 C   0  0  0  0  0  0  0  0  0  0  0  0
    7.1446   -1.0331    0.6432 C   0  0  0  0  0  0  0  0  0  0  0  0
    8.0400   -0.0251    1.0044 C   0  0  0  0  0  0  0  0  0  0  0  0
    8.1367    1.1325    0.2346 C   0  0  0  0  0  0  0  0  0  0  0  0
    7.3380    1.2848   -0.8970 C   0  0  0  0  0  0  0  0  0  0  0  0
    6.4422    0.2787   -1.2606 C   0  0  0  0  0  0  0  0  0  0  0  0
   -6.9291    2.8989   -0.4574 C   0  0  0  0  0  0  0  0  0  0  0  0
  1  2  1  0
  2  3  2  3
  4  3  1  6
  4  5  1  0
  5  6  1  0
  6  7  1  0
  6  8  1  0
  5  9  1  1
  9 10  2  0
  9 11  1  0
 11 12  1  0
 12 13  1  0
 13 14  2  0
 14 15  1  0
 15 16  1  0
 16 17  2  0
 16 18  1  0
 18 19  1  0
 19 20  2  0
 20 21  1  0
 21 22  2  0
 22 23  1  0
 23 24  2  0
  2 25  1  0
  6  4  1  0
 17 13  1  0
 24 19  1  0
M  END
