
     RDKit          3D

 19 20  0  0  0  0  0  0  0  0999 V2000
   -1.3576   -2.8446    0.1890 O   0  0  0  0  0  0  0  0  0  0  0  0
   -1.5798   -1.6447    0.1158 C   0  0  0  0  0  0  0  0  0  0  0  0
   -2.9779   -1.0631   -0.0137 C   0  0  2  0  0  0  0  0  0  0  0  0
   -3.4903   -1.2448   -1.7087 Cl  0  0  0  0  0  0  0  0  0  0  0  0
   -2.7801    0.3836    0.4335 C   0  0  2  0  0  0  0  0  0  0  0  0
   -3.8227    1.3737   -0.0617 C   0  0  0  0  0  0  0  0  0  0  0  0
   -3.5604    2.9810    0.6627 Cl  0  0  0  0  0  0  0  0  0  0  0  0
   -1.3626    0.6902   -0.0296 C   0  0  0  0  0  0  0  0  0  0  0  0
   -0.6656   -0.5731    0.0912 N   0  0  0  0  0  0  0  0  0  0  0  0
    0.7540   -0.6726    0.0669 C   0  0  0  0  0  0  0  0  0  0  0  0
    1.4143   -1.8931    0.2510 C   0  0  0  0  0  0  0  0  0  0  0  0
    2.8108   -1.9782    0.2240 C   0  0  0  0  0  0  0  0  0  0  0  0
    3.5795   -0.8387    0.0132 C   0  0  0  0  0  0  0  0  0  0  0  0
    2.9561    0.3996   -0.1672 C   0  0  0  0  0  0  0  0  0  0  0  0
    3.7713    1.6426   -0.4235 C   0  0  0  0  0  0  0  0  0  0  0  0
    5.0368    1.5715    0.0746 F   0  0  0  0  0  0  0  0  0  0  0  0
    3.9041    1.9089   -1.7517 F   0  0  0  0  0  0  0  0  0  0  0  0
    3.2180    2.7596    0.1272 F   0  0  0  0  0  0  0  0  0  0  0  0
    1.5483    0.4671   -0.1458 C   0  0  0  0  0  0  0  0  0  0  0  0
  1  2  2  0
  2  3  1  0
  3  4  1  6
  3  5  1  0
  5  6  1  6
  6  7  1  0
  5  8  1  0
  8  9  1  0
  9 10  1  0
 10 11  2  0
 11 12  1  0
 12 13  2  0
 13 14  1  0
 14 15  1  0
 15 16  1  0
 15 17  1  0
 15 18  1  0
 14 19  2  0
  9  2  1  0
 19 10  1  0
M  END
