
     RDKit          3D

 24 26  0  0  0  0  0  0  0  0999 V2000
   -5.7035    0.1070    0.3434 C   0  0  0  0  0  0  0  0  0  0  0  0
   -4.9314   -1.1301   -0.0193 C   0  0  0  0  0  0  0  0  0  0  0  0
   -5.4988   -1.9141   -1.1715 C   0  0  0  0  0  0  0  0  0  0  0  0
   -3.8152   -1.5362    0.6178 C   0  0  0  0  0  0  0  0  0  0  0  0
   -3.1574   -0.8848    1.7597 C   0  0  1  0  0  0  0  0  0  0  0  0
   -1.6698   -1.0124    2.0120 C   0  0  1  0  0  0  0  0  0  0  0  0
   -0.7583   -1.8116    1.1629 C   0  0  0  0  0  0  0  0  0  0  0  0
   -0.9504   -2.9936    0.9190 O   0  0  0  0  0  0  0  0  0  0  0  0
    0.3186   -1.0869    0.7720 O   0  0  0  0  0  0  0  0  0  0  0  0
    1.2077   -1.8298   -0.0566 C   0  0  0  0  0  0  0  0  0  0  0  0
    2.2914   -0.9610   -0.4215 N   0  0  0  0  0  0  0  0  0  0  0  0
    2.2597   -0.0941   -1.4659 C   0  0  0  0  0  0  0  0  0  0  0  0
    1.3811    0.0846   -2.2886 O   0  0  0  0  0  0  0  0  0  0  0  0
    3.5296    0.6348   -1.4356 C   0  0  0  0  0  0  0  0  0  0  0  0
    4.2375    0.1871   -0.3951 C   0  0  0  0  0  0  0  0  0  0  0  0
    5.5743    0.6859    0.0031 C   0  0  0  0  0  0  0  0  0  0  0  0
    5.9072    1.9972   -0.7320 C   0  0  0  0  0  0  0  0  0  0  0  0
    5.4801    1.9680   -2.2097 C   0  0  0  0  0  0  0  0  0  0  0  0
    3.9773    1.6824   -2.3833 C   0  0  0  0  0  0  0  0  0  0  0  0
    3.4434   -0.8378    0.2851 C   0  0  0  0  0  0  0  0  0  0  0  0
    3.7970   -1.4316    1.2869 O   0  0  0  0  0  0  0  0  0  0  0  0
   -2.2519    0.3183    1.5502 C   0  0  0  0  0  0  0  0  0  0  0  0
   -1.9742    0.8200    0.1486 C   0  0  0  0  0  0  0  0  0  0  0  0
   -2.3283    1.4295    2.5690 C   0  0  0  0  0  0  0  0  0  0  0  0
  1  2  1  0
  2  3  1  0
  2  4  2  3
  5  4  1  6
  5  6  1  0
  6  7  1  6
  7  8  2  0
  7  9  1  0
  9 10  1  0
 10 11  1  0
 11 12  1  0
 12 13  2  0
 12 14  1  0
 14 15  2  0
 15 16  1  0
 16 17  1  0
 17 18  1  0
 18 19  1  0
 15 20  1  0
 20 21  2  0
  6 22  1  0
 22 23  1  0
 22 24  1  0
 22  5  1  0
 20 11  1  0
 19 14  1  0
M  END
