
     RDKit          3D

  8  7  0  0  0  0  0  0  0  0999 V2000
   -1.2264    1.1853    0.8864 C   0  0  0  0  0  0  0  0  0  0  0  0
   -0.6646    0.3913   -0.3033 C   0  0  0  0  0  0  0  0  0  0  0  0
   -1.7868   -0.5036   -0.8483 C   0  0  0  0  0  0  0  0  0  0  0  0
    0.5964   -0.4092    0.1080 C   0  0  2  0  0  0  0  0  0  0  0  0
    1.8076    0.5078    0.3836 C   0  0  0  0  0  0  0  0  0  0  0  0
    1.8370    1.7242    0.4603 O   0  0  0  0  0  0  0  0  0  0  0  0
    2.9453   -0.2053    0.5838 O   0  0  0  0  0  0  0  0  0  0  0  0
    0.9937   -1.3835   -0.9368 N   0  0  0  0  0  0  0  0  0  0  0  0
  1  2  1  0
  2  3  1  0
  2  4  1  0
  4  5  1  0
  5  6  2  0
  5  7  1  0
  4  8  1  6
M  END
