
     RDKit          3D

  7  7  0  0  0  0  0  0  0  0999 V2000
    0.5772    0.9952   -0.1987 C   0  0  0  0  0  0  0  0  0  0  0  0
    1.7639    0.0235   -0.0922 C   0  0  0  0  0  0  0  0  0  0  0  0
    0.8053   -1.0087    0.3585 N   0  0  0  0  0  0  0  0  0  0  0  0
   -0.2719   -0.2824   -0.3961 C   0  0  1  0  0  0  0  0  0  0  0  0
   -1.6810   -0.4028    0.2745 C   0  0  0  0  0  0  0  0  0  0  0  0
   -2.3464   -1.4151    0.4676 O   0  0  0  0  0  0  0  0  0  0  0  0
   -2.2109    0.7858    0.6622 O   0  0  0  0  0  0  0  0  0  0  0  0
  1  2  1  0
  2  3  1  0
  3  4  1  0
  4  5  1  1
  5  6  2  0
  5  7  1  0
  4  1  1  0
M  END
