
     RDKit          3D

  7  6  0  0  0  0  0  0  0  0999 V2000
   -1.0029   -0.5221    0.5358 C   0  0  0  0  0  0  0  0  0  0  0  0
    0.0311   -0.0919   -0.5105 C   0  0  2  0  0  0  0  0  0  0  0  0
    1.4177   -0.4854   -0.0143 C   0  0  0  0  0  0  0  0  0  0  0  0
    1.8945   -1.6094   -0.0442 O   0  0  0  0  0  0  0  0  0  0  0  0
    2.1020    0.5292    0.5608 O   0  0  0  0  0  0  0  0  0  0  0  0
   -0.0616    1.3648   -0.7960 N   0  0  0  0  0  0  0  0  0  0  0  0
   -2.3076   -0.0573    0.1772 O   0  0  0  0  0  0  0  0  0  0  0  0
  1  2  1  0
  2  3  1  0
  3  4  2  0
  3  5  1  0
  2  6  1  1
  1  7  1  0
M  END
