
     RDKit          3D

  9  9  0  0  0  0  0  0  0  0999 V2000
   -1.1395    1.0029   -0.6092 C   0  0  0  0  0  0  0  0  0  0  0  0
    0.3418    1.1608   -0.2796 C   0  0  0  0  0  0  0  0  0  0  0  0
    0.9413   -0.1426    0.2745 C   0  0  1  0  0  0  0  0  0  0  0  0
   -0.1354   -1.1688    0.6541 C   0  0  0  0  0  0  0  0  0  0  0  0
   -1.2182   -0.5239    1.3954 N   0  0  0  0  0  0  0  0  0  0  0  0
   -1.9313    0.4708    0.5899 C   0  0  0  0  0  0  0  0  0  0  0  0
    1.9046   -0.7565   -0.7140 C   0  0  0  0  0  0  0  0  0  0  0  0
    1.7503   -1.7771   -1.3633 O   0  0  0  0  0  0  0  0  0  0  0  0
    3.0429   -0.0428   -0.8348 O   0  0  0  0  0  0  0  0  0  0  0  0
  1  2  1  0
  2  3  1  0
  3  4  1  0
  4  5  1  0
  5  6  1  0
  3  7  1  6
  7  8  2  0
  7  9  1  0
  6  1  1  0
M  END
