
     RDKit          3D

  9  9  0  0  0  0  0  0  0  0999 V2000
   -1.6360    0.0123    0.7040 C   0  0  0  0  0  0  0  0  0  0  0  0
   -1.5543   -0.2460   -0.7943 C   0  0  0  0  0  0  0  0  0  0  0  0
   -0.2096   -0.7687   -1.0704 N   0  0  0  0  0  0  0  0  0  0  0  0
    0.5570   -0.7087    0.2115 C   0  0  2  0  0  0  0  0  0  0  0  0
   -0.1944    0.2846    1.0916 C   0  0  1  0  0  0  0  0  0  0  0  0
    0.1102    1.6505    0.7997 O   0  0  0  0  0  0  0  0  0  0  0  0
    2.0103   -0.3179    0.0000 C   0  0  0  0  0  0  0  0  0  0  0  0
    2.9394   -0.5499    0.7570 O   0  0  0  0  0  0  0  0  0  0  0  0
    2.2181    0.3862   -1.1394 O   0  0  0  0  0  0  0  0  0  0  0  0
  1  2  1  0
  2  3  1  0
  3  4  1  0
  4  5  1  0
  5  6  1  6
  4  7  1  6
  7  8  2  0
  7  9  1  0
  5  1  1  0
M  END
