
     RDKit          3D

  9  9  0  0  0  0  0  0  0  0999 V2000
   -0.8036   -0.4396   -1.2711 C   0  0  0  0  0  0  0  0  0  0  0  0
   -1.7867    0.3531   -0.4191 C   0  0  0  0  0  0  0  0  0  0  0  0
   -1.0667    1.1000    0.6988 C   0  0  0  0  0  0  0  0  0  0  0  0
   -0.2705    0.1990    1.5359 N   0  0  0  0  0  0  0  0  0  0  0  0
    0.7220   -0.5828    0.7553 C   0  0  1  0  0  0  0  0  0  0  0  0
    0.0493   -1.3482   -0.3908 C   0  0  0  0  0  0  0  0  0  0  0  0
    1.8944    0.3039    0.3041 C   0  0  0  0  0  0  0  0  0  0  0  0
    2.1741    1.4127    0.7377 O   0  0  0  0  0  0  0  0  0  0  0  0
    2.6991   -0.2783   -0.6068 O   0  0  0  0  0  0  0  0  0  0  0  0
  1  2  1  0
  2  3  1  0
  3  4  1  0
  4  5  1  0
  5  6  1  0
  5  7  1  6
  7  8  2  0
  7  9  1  0
  6  1  1  0
M  END
