
     RDKit          3D

  8  7  0  0  0  0  0  0  0  0999 V2000
    2.4681    0.1599   -0.4239 C   0  0  0  0  0  0  0  0  0  0  0  0
    1.5394   -0.4745    0.5997 C   0  0  0  0  0  0  0  0  0  0  0  0
    0.1746   -0.8688    0.0242 C   0  0  0  0  0  0  0  0  0  0  0  0
   -0.6647    0.2915   -0.5292 C   0  0  1  0  0  0  0  0  0  0  0  0
   -1.9894   -0.2423   -1.1014 C   0  0  0  0  0  0  0  0  0  0  0  0
   -2.1568   -1.2873   -1.7091 O   0  0  0  0  0  0  0  0  0  0  0  0
   -3.0319    0.6005   -0.9122 O   0  0  0  0  0  0  0  0  0  0  0  0
   -0.9178    1.3054    0.5224 N   0  0  0  0  0  0  0  0  0  0  0  0
  1  2  1  0
  2  3  1  0
  3  4  1  0
  4  5  1  0
  5  6  2  0
  5  7  1  0
  4  8  1  1
M  END
