
     RDKit          3D

  8  7  0  0  0  0  0  0  0  0999 V2000
   -2.5197    0.3039    0.1551 C   0  0  0  0  0  0  0  0  0  0  0  0
   -1.0331    0.6292    0.0670 C   0  0  0  0  0  0  0  0  0  0  0  0
   -0.1841   -0.5517   -0.4401 C   0  0  1  0  0  0  0  0  0  0  0  0
    1.2671   -0.1361   -0.7283 C   0  0  0  0  0  0  0  0  0  0  0  0
    2.0012    0.4148    0.4649 C   0  0  0  0  0  0  0  0  0  0  0  0
    1.8773    0.0716    1.6288 O   0  0  0  0  0  0  0  0  0  0  0  0
    2.9088    1.3494    0.1209 O   0  0  0  0  0  0  0  0  0  0  0  0
   -0.2709   -1.6908    0.4792 N   0  0  0  0  0  0  0  0  0  0  0  0
  1  2  1  0
  2  3  1  0
  3  4  1  0
  4  5  1  0
  5  6  2  0
  5  7  1  0
  3  8  1  1
M  END
