
     RDKit          3D

  7  6  0  0  0  0  0  0  0  0999 V2000
   -0.8936   -0.8356   -0.6307 C   0  0  0  0  0  0  0  0  0  0  0  0
   -0.0243    0.0810    0.2395 C   0  0  1  0  0  0  0  0  0  0  0  0
    1.4571   -0.1401   -0.0545 C   0  0  0  0  0  0  0  0  0  0  0  0
    1.9567   -1.0799   -0.6523 O   0  0  0  0  0  0  0  0  0  0  0  0
    2.2493    0.8113    0.4940 O   0  0  0  0  0  0  0  0  0  0  0  0
   -0.3966    1.4990    0.0258 N   0  0  0  0  0  0  0  0  0  0  0  0
   -2.2652   -0.7589   -0.2242 O   0  0  0  0  0  0  0  0  0  0  0  0
  1  2  1  0
  2  3  1  0
  3  4  2  0
  3  5  1  0
  2  6  1  6
  1  7  1  0
M  END
