
     RDKit          3D

 27 29  0  0  0  0  0  0  0  0999 V2000
   -3.1794   -2.7621    0.8101 C   0  0  0  0  0  0  0  0  0  0  0  0
   -2.6735   -1.3034    0.7680 C   0  0  2  0  0  0  0  0  0  0  0  0
   -3.0316   -0.7594    2.0329 O   0  0  0  0  0  0  0  0  0  0  0  0
   -3.4715   -0.5401   -0.3254 C   0  0  0  0  0  0  0  0  0  0  0  0
   -3.1233    0.8586   -0.4797 N   0  0  0  0  0  0  0  0  0  0  0  0
   -2.0960    1.3903   -1.1998 C   0  0  0  0  0  0  0  0  0  0  0  0
   -2.1615    2.7009   -1.1648 N   0  0  0  0  0  0  0  0  0  0  0  0
   -3.2906    2.9271   -0.4302 C   0  0  0  0  0  0  0  0  0  0  0  0
   -3.9385    1.8310   -0.0291 N   0  0  0  0  0  0  0  0  0  0  0  0
   -1.1534   -1.2646    0.5109 C   0  0  0  0  0  0  0  0  0  0  0  0
   -0.6725   -1.9305   -0.6461 C   0  0  0  0  0  0  0  0  0  0  0  0
    0.6731   -1.9027   -1.0133 C   0  0  0  0  0  0  0  0  0  0  0  0
    1.5794   -1.1922   -0.2444 C   0  0  0  0  0  0  0  0  0  0  0  0
    2.8945   -1.2085   -0.6429 O   0  0  0  0  0  0  0  0  0  0  0  0
    3.5631   -0.0051   -0.6753 C   0  0  0  0  0  0  0  0  0  0  0  0
    4.8750   -0.0040   -0.1975 C   0  0  0  0  0  0  0  0  0  0  0  0
    5.6263    1.1726   -0.2263 C   0  0  0  0  0  0  0  0  0  0  0  0
    5.0657    2.3387   -0.7467 C   0  0  0  0  0  0  0  0  0  0  0  0
    5.9920    3.7879   -0.7834 Cl  0  0  0  0  0  0  0  0  0  0  0  0
    3.7630    2.3366   -1.2447 C   0  0  0  0  0  0  0  0  0  0  0  0
    3.0110    1.1597   -1.2177 C   0  0  0  0  0  0  0  0  0  0  0  0
    1.1520   -0.5569    0.9201 C   0  0  0  0  0  0  0  0  0  0  0  0
   -0.2069   -0.5725    1.3171 C   0  0  0  0  0  0  0  0  0  0  0  0
   -0.5443    0.1609    2.6062 C   0  0  0  0  0  0  0  0  0  0  0  0
    0.5579    0.6615    3.2409 F   0  0  0  0  0  0  0  0  0  0  0  0
   -1.1273   -0.6605    3.5289 F   0  0  0  0  0  0  0  0  0  0  0  0
   -1.3660    1.2253    2.4289 F   0  0  0  0  0  0  0  0  0  0  0  0
  2  1  1  1
  2  3  1  0
  2  4  1  0
  4  5  1  0
  5  6  1  0
  6  7  2  0
  7  8  1  0
  8  9  2  0
  2 10  1  0
 10 11  2  0
 11 12  1  0
 12 13  2  0
 13 14  1  0
 14 15  1  0
 15 16  2  0
 16 17  1  0
 17 18  2  0
 18 19  1  0
 18 20  1  0
 20 21  2  0
 13 22  1  0
 22 23  2  0
 23 24  1  0
 24 25  1  0
 24 26  1  0
 24 27  1  0
  9  5  1  0
 23 10  1  0
 21 15  1  0
M  END
