
     RDKit          3D

 18 19  0  0  0  0  0  0  0  0999 V2000
   -2.3458   -1.3323   -1.1832 O   0  0  0  0  0  0  0  0  0  0  0  0
   -3.0866   -1.3514   -0.2038 C   0  0  0  0  0  0  0  0  0  0  0  0
   -3.2135   -0.1896    0.7766 C   0  0  0  0  0  0  0  0  0  0  0  0
   -1.9019    0.6336    0.8497 C   0  0  2  0  0  0  0  0  0  0  0  0
   -1.5955    1.5290   -0.3504 C   0  0  0  0  0  0  0  0  0  0  0  0
   -0.1108    1.4147   -0.5314 C   0  0  0  0  0  0  0  0  0  0  0  0
    0.5284    2.1125   -1.3049 O   0  0  0  0  0  0  0  0  0  0  0  0
    0.3604    0.4065    0.2610 N   0  0  0  0  0  0  0  0  0  0  0  0
    1.7234   -0.1239    0.2130 C   0  0  0  0  0  0  0  0  0  0  0  0
    2.7826    0.9412    0.5361 C   0  0  0  0  0  0  0  0  0  0  0  0
    4.1916    0.3523    0.4998 C   0  0  0  0  0  0  0  0  0  0  0  0
    4.4799   -0.3305   -0.8344 C   0  0  0  0  0  0  0  0  0  0  0  0
    3.4301   -1.3875   -1.1662 C   0  0  0  0  0  0  0  0  0  0  0  0
    2.0164   -0.8108   -1.1299 C   0  0  0  0  0  0  0  0  0  0  0  0
   -0.6412   -0.1987    0.9691 C   0  0  0  0  0  0  0  0  0  0  0  0
   -0.5441   -1.2123    1.6462 O   0  0  0  0  0  0  0  0  0  0  0  0
   -3.5635   -0.7747    2.1589 C   0  0  0  0  0  0  0  0  0  0  0  0
   -4.3987    0.6765    0.3187 C   0  0  0  0  0  0  0  0  0  0  0  0
  1  2  2  0
  2  3  1  0
  4  3  1  6
  4  5  1  0
  5  6  1  0
  6  7  2  0
  6  8  1  0
  8  9  1  0
  9 10  1  0
 10 11  1  0
 11 12  1  0
 12 13  1  0
 13 14  1  0
  8 15  1  0
 15 16  2  0
  3 17  1  0
  3 18  1  0
 15  4  1  0
 14  9  1  0
M  END
