
     RDKit          3D

 10 10  0  0  0  0  0  0  0  0999 V2000
   -2.3488    0.1921   -0.4793 C   0  0  0  0  0  0  0  0  0  0  0  0
   -1.4012   -0.5996    0.4156 C   0  0  2  0  0  0  0  0  0  0  0  0
    0.0362   -0.1529    0.2363 C   0  0  0  0  0  0  0  0  0  0  0  0
    0.8458   -0.7828   -0.7298 C   0  0  0  0  0  0  0  0  0  0  0  0
    2.1680   -0.3869   -0.9424 C   0  0  0  0  0  0  0  0  0  0  0  0
    2.7096    0.6543   -0.1972 C   0  0  0  0  0  0  0  0  0  0  0  0
    1.9274    1.3003    0.7580 C   0  0  0  0  0  0  0  0  0  0  0  0
    0.6006    0.9045    0.9729 C   0  0  0  0  0  0  0  0  0  0  0  0
   -0.3743    1.8721    2.2890 Br  0  0  0  0  0  0  0  0  0  0  0  0
   -1.5322   -1.9883    0.0956 O   0  0  0  0  0  0  0  0  0  0  0  0
  2  1  1  6
  2  3  1  0
  3  4  2  0
  4  5  1  0
  5  6  2  0
  6  7  1  0
  7  8  2  0
  8  9  1  0
  2 10  1  0
  8  3  1  0
M  END
