
     RDKit          3D

 18 18  0  0  0  0  0  0  0  0999 V2000
   -2.2640    2.6615   -0.5459 C   0  0  0  0  0  0  0  0  0  0  0  0
   -2.7987    1.2700   -0.8168 C   0  0  0  0  0  0  0  0  0  0  0  0
   -1.7146    0.3611   -0.8574 O   0  0  0  0  0  0  0  0  0  0  0  0
   -1.5618   -0.8120    0.2488 P   0  0  0  0  0  5  0  0  0  0  0  0
   -1.9163   -0.3814    2.1101 S   0  0  0  0  0  0  0  0  0  0  0  0
   -2.4543   -2.0018   -0.3934 O   0  0  0  0  0  0  0  0  0  0  0  0
   -3.8610   -1.8826   -0.4745 C   0  0  0  0  0  0  0  0  0  0  0  0
   -4.4465   -3.2556   -0.7366 C   0  0  0  0  0  0  0  0  0  0  0  0
   -0.0761   -1.3835   -0.0813 O   0  0  0  0  0  0  0  0  0  0  0  0
    1.0387   -0.6333    0.1611 C   0  0  0  0  0  0  0  0  0  0  0  0
    1.3975    0.4003   -0.6991 C   0  0  0  0  0  0  0  0  0  0  0  0
    2.5566    1.1375   -0.4469 C   0  0  0  0  0  0  0  0  0  0  0  0
    3.3644    0.8269    0.6543 C   0  0  0  0  0  0  0  0  0  0  0  0
    4.8617    1.7924    0.9633 S   0  0  0  0  0  4  0  0  0  0  0  0
    5.8900    1.0237   -0.3146 C   0  0  0  0  0  0  0  0  0  0  0  0
    5.3865    1.3302    2.2912 O   0  0  0  0  0  0  0  0  0  0  0  0
    2.9967   -0.2219    1.5046 C   0  0  0  0  0  0  0  0  0  0  0  0
    1.8384   -0.9595    1.2522 C   0  0  0  0  0  0  0  0  0  0  0  0
  1  2  1  0
  2  3  1  0
  3  4  1  0
  4  5  2  0
  4  6  1  0
  6  7  1  0
  7  8  1  0
  4  9  1  0
  9 10  1  0
 10 11  2  0
 11 12  1  0
 12 13  2  0
 13 14  1  0
 14 15  1  6
 14 16  2  0
 13 17  1  0
 17 18  2  0
 18 10  1  0
M  END
