
     RDKit          3D

 18 20  0  0  0  0  0  0  0  0999 V2000
   -3.4803    1.0514   -1.4702 C   0  0  0  0  0  0  0  0  0  0  0  0
   -2.9931    0.7022   -0.0652 C   0  0  0  0  0  0  0  0  0  0  0  0
   -1.8623    1.6559    0.3614 C   0  0  0  0  0  0  0  0  0  0  0  0
   -0.8635    0.8013    1.1223 C   0  0  0  0  0  0  0  0  0  0  0  0
   -0.9111   -0.5576    0.4077 C   0  0  2  0  0  0  0  0  0  0  0  0
   -0.0376   -0.5849   -0.8672 C   0  0  0  0  0  0  0  0  0  0  0  0
    1.4258   -0.3954   -0.5826 C   0  0  0  0  0  0  0  0  0  0  0  0
    2.0626    0.7429   -0.7500 N   0  0  0  0  0  0  0  0  0  0  0  0
    3.3959    0.5944   -0.4058 C   0  0  0  0  0  0  0  0  0  0  0  0
    4.3784    1.6042   -0.4504 C   0  0  0  0  0  0  0  0  0  0  0  0
    5.6935    1.3137   -0.0728 C   0  0  0  0  0  0  0  0  0  0  0  0
    6.0391    0.0329    0.3467 C   0  0  0  0  0  0  0  0  0  0  0  0
    5.0833   -0.9867    0.3994 C   0  0  0  0  0  0  0  0  0  0  0  0
    3.7655   -0.6833    0.0182 C   0  0  0  0  0  0  0  0  0  0  0  0
    2.3835   -1.7085   -0.0263 S   0  0  0  0  0  0  0  0  0  0  0  0
   -2.4422   -0.7493    0.1464 C   0  0  0  0  0  0  0  0  0  0  0  0
   -2.7604   -1.7311   -0.9918 C   0  0  0  0  0  0  0  0  0  0  0  0
   -3.0956   -1.3383    1.4252 C   0  0  0  0  0  0  0  0  0  0  0  0
  1  2  1  0
  2  3  1  0
  3  4  1  0
  4  5  1  0
  5  6  1  6
  6  7  1  0
  7  8  2  0
  8  9  1  0
  9 10  2  0
 10 11  1  0
 11 12  2  0
 12 13  1  0
 13 14  2  0
 14 15  1  0
  5 16  1  0
 16 17  1  0
 16 18  1  0
 16  2  1  0
 15  7  1  0
 14  9  1  0
M  END
