
     RDKit          3D

 20 21  0  0  0  0  0  0  0  0999 V2000
   -1.0123   -1.2978   -1.2772 C   0  0  0  0  0  0  0  0  0  0  0  0
   -1.7160   -0.7296   -0.0307 C   0  0  0  0  0  0  0  0  0  0  0  0
   -2.3221   -1.9168    0.7545 C   0  0  0  0  0  0  0  0  0  0  0  0
   -2.8858    0.1512   -0.5012 C   0  0  0  0  0  0  0  0  0  0  0  0
   -0.6905    0.0176    0.8977 C   0  0  2  0  0  0  0  0  0  0  0  0
   -1.3139    0.4217    2.1219 O   0  0  0  0  0  0  0  0  0  0  0  0
    0.1109    1.1887    0.2999 C   0  0  0  0  0  0  0  0  0  0  0  0
    1.3944    1.0442   -0.1180 C   0  0  0  0  0  0  0  0  0  0  0  0
    2.2158   -0.1713   -0.0597 C   0  0  0  0  0  0  0  0  0  0  0  0
    2.6806   -0.6658    1.1653 C   0  0  0  0  0  0  0  0  0  0  0  0
    3.4809   -1.8104    1.2048 C   0  0  0  0  0  0  0  0  0  0  0  0
    3.8272   -2.4538    0.0185 C   0  0  0  0  0  0  0  0  0  0  0  0
    4.8125   -3.8629    0.0659 Cl  0  0  0  0  0  0  0  0  0  0  0  0
    3.3838   -1.9603   -1.2071 C   0  0  0  0  0  0  0  0  0  0  0  0
    2.5830   -0.8158   -1.2466 C   0  0  0  0  0  0  0  0  0  0  0  0
   -0.5473    2.4479    0.2506 N   0  0  0  0  0  0  0  0  0  0  0  0
   -0.0829    3.6306   -0.3166 C   0  0  0  0  0  0  0  0  0  0  0  0
   -0.9396    4.6127   -0.1727 N   0  0  0  0  0  0  0  0  0  0  0  0
   -1.9497    4.0219    0.5063 C   0  0  0  0  0  0  0  0  0  0  0  0
   -1.7768    2.7328    0.7889 N   0  0  0  0  0  0  0  0  0  0  0  0
  1  2  1  0
  2  3  1  0
  2  4  1  0
  2  5  1  0
  5  6  1  1
  5  7  1  0
  7  8  2  0
  8  9  1  0
  9 10  2  0
 10 11  1  0
 11 12  2  0
 12 13  1  0
 12 14  1  0
 14 15  2  0
  7 16  1  0
 16 17  1  0
 17 18  2  0
 18 19  1  0
 19 20  2  0
 15  9  1  0
 20 16  1  0
M  END
