
     RDKit          3D

 20 22  0  0  0  0  0  0  0  0999 V2000
   -1.9310   -0.2220   -2.6987 O   0  0  0  0  0  0  0  0  0  0  0  0
   -2.7804   -0.1446   -1.8208 C   0  0  0  0  0  0  0  0  0  0  0  0
   -4.2259   -0.5170   -2.0376 C   0  0  0  0  0  0  0  0  0  0  0  0
   -4.8599   -0.1239   -0.7114 C   0  0  0  0  0  0  0  0  0  0  0  0
   -3.7373   -0.2886    0.3051 C   0  0  0  0  0  0  0  0  0  0  0  0
   -2.5082    0.3056   -0.3940 C   0  0  1  0  0  0  0  0  0  0  0  0
   -1.1546   -0.1903    0.1123 C   0  0  2  0  0  0  0  0  0  0  0  0
   -1.0817   -0.5670    1.5898 C   0  0  0  0  0  0  0  0  0  0  0  0
    0.3058   -0.1582    1.9918 C   0  0  0  0  0  0  0  0  0  0  0  0
    0.8444   -0.4859    3.0377 O   0  0  0  0  0  0  0  0  0  0  0  0
    0.7908    0.6911    1.0433 N   0  0  0  0  0  0  0  0  0  0  0  0
    2.0434    1.4031    1.1693 C   0  0  0  0  0  0  0  0  0  0  0  0
    3.1716    0.6365    0.5211 C   0  0  0  0  0  0  0  0  0  0  0  0
    3.4457    0.7957   -0.8450 C   0  0  0  0  0  0  0  0  0  0  0  0
    4.4707    0.0669   -1.4497 C   0  0  0  0  0  0  0  0  0  0  0  0
    5.2256   -0.8318   -0.6982 C   0  0  0  0  0  0  0  0  0  0  0  0
    4.9532   -1.0077    0.6573 C   0  0  0  0  0  0  0  0  0  0  0  0
    3.9282   -0.2807    1.2645 C   0  0  0  0  0  0  0  0  0  0  0  0
   -0.0859    0.8776    0.0134 C   0  0  0  0  0  0  0  0  0  0  0  0
   -0.0221    1.7456   -0.8426 O   0  0  0  0  0  0  0  0  0  0  0  0
  1  2  2  0
  2  3  1  0
  3  4  1  0
  4  5  1  0
  6  5  1  1
  6  7  1  0
  7  8  1  1
  8  9  1  0
  9 10  2  0
  9 11  1  0
 11 12  1  0
 12 13  1  0
 13 14  2  0
 14 15  1  0
 15 16  2  0
 16 17  1  0
 17 18  2  0
 11 19  1  0
 19 20  2  0
  6  2  1  0
 19  7  1  0
 18 13  1  0
M  END
