
     RDKit          3D

 20 21  0  0  0  0  0  0  0  0999 V2000
   -2.0784   -2.2557   -0.5781 C   0  0  0  0  0  0  0  0  0  0  0  0
   -1.7973   -0.8766    0.0766 C   0  0  0  0  0  0  0  0  0  0  0  0
   -3.1419   -0.1226    0.1030 C   0  0  0  0  0  0  0  0  0  0  0  0
   -1.3582   -1.1519    1.5219 C   0  0  0  0  0  0  0  0  0  0  0  0
   -0.6922   -0.1457   -0.7672 C   0  0  1  0  0  0  0  0  0  0  0  0
   -1.2339    0.2123   -2.0578 O   0  0  0  0  0  0  0  0  0  0  0  0
    0.0456    1.1208   -0.2344 C   0  0  2  0  0  0  0  0  0  0  0  0
    1.2015    0.8493    0.7598 C   0  0  0  0  0  0  0  0  0  0  0  0
    2.3188   -0.0101    0.2050 C   0  0  0  0  0  0  0  0  0  0  0  0
    3.0994    0.4375   -0.8715 C   0  0  0  0  0  0  0  0  0  0  0  0
    4.1250   -0.3604   -1.3843 C   0  0  0  0  0  0  0  0  0  0  0  0
    4.3817   -1.6067   -0.8190 C   0  0  0  0  0  0  0  0  0  0  0  0
    5.6432   -2.5901   -1.4518 Cl  0  0  0  0  0  0  0  0  0  0  0  0
    3.6253   -2.0593    0.2589 C   0  0  0  0  0  0  0  0  0  0  0  0
    2.5997   -1.2616    0.7720 C   0  0  0  0  0  0  0  0  0  0  0  0
   -0.8530    2.1674    0.2331 N   0  0  0  0  0  0  0  0  0  0  0  0
   -1.5679    3.0387   -0.5351 C   0  0  0  0  0  0  0  0  0  0  0  0
   -2.1901    3.8998    0.2365 N   0  0  0  0  0  0  0  0  0  0  0  0
   -1.8138    3.5146    1.4902 C   0  0  0  0  0  0  0  0  0  0  0  0
   -0.9912    2.4634    1.5422 N   0  0  0  0  0  0  0  0  0  0  0  0
  1  2  1  0
  2  3  1  0
  2  4  1  0
  2  5  1  0
  5  6  1  6
  5  7  1  0
  7  8  1  1
  8  9  1  0
  9 10  2  0
 10 11  1  0
 11 12  2  0
 12 13  1  0
 12 14  1  0
 14 15  2  0
  7 16  1  0
 16 17  1  0
 17 18  2  0
 18 19  1  0
 19 20  2  0
 15  9  1  0
 20 16  1  0
M  END
