
     RDKit          3D

 16 17  0  0  0  0  0  0  0  0999 V2000
    3.4061    1.6786    0.6153 C   0  0  0  0  0  0  0  0  0  0  0  0
    3.4658    0.1801    0.8683 C   0  0  0  0  0  0  0  0  0  0  0  0
    2.2510   -0.4834    0.4377 N   0  0  0  0  0  0  0  0  0  0  0  0
    2.0406   -0.9028   -0.8441 C   0  0  0  0  0  0  0  0  0  0  0  0
    2.8462   -0.8852   -1.7631 O   0  0  0  0  0  0  0  0  0  0  0  0
    0.6282   -1.3982   -0.9754 C   0  0  0  0  0  0  0  0  0  0  0  0
    0.0734   -1.3312    0.4450 C   0  0  2  0  0  0  0  0  0  0  0  0
   -1.3143   -0.6947    0.6280 C   0  0  2  0  0  0  0  0  0  0  0  0
   -2.3865   -1.4491   -0.1557 C   0  0  0  0  0  0  0  0  0  0  0  0
   -4.0554   -0.8190    0.2189 S   0  0  0  0  0  0  0  0  0  0  0  0
   -3.7926    0.9301   -0.2167 C   0  0  0  0  0  0  0  0  0  0  0  0
   -2.6288    1.5248    0.5523 C   0  0  0  0  0  0  0  0  0  0  0  0
   -1.3563    0.7773    0.2308 C   0  0  0  0  0  0  0  0  0  0  0  0
   -0.4103    1.3384   -0.3205 O   0  0  0  0  0  0  0  0  0  0  0  0
    1.1378   -0.5920    1.2183 C   0  0  0  0  0  0  0  0  0  0  0  0
    1.0009   -0.1991    2.3679 O   0  0  0  0  0  0  0  0  0  0  0  0
  1  2  1  0
  2  3  1  0
  3  4  1  0
  4  5  2  0
  4  6  1  0
  7  6  1  6
  7  8  1  0
  8  9  1  6
  9 10  1  0
 10 11  1  0
 11 12  1  0
 12 13  1  0
 13 14  2  0
  7 15  1  0
 15 16  2  0
 15  3  1  0
 13  8  1  0
M  END
