
     RDKit          3D

 15 15  0  0  0  0  0  0  0  0999 V2000
   -3.8473    0.9482    0.7077 C   0  0  0  0  0  0  0  0  0  0  0  0
   -3.6090    0.2280   -0.5909 C   0  0  0  0  0  0  0  0  0  0  0  0
   -4.6623   -0.7900   -0.9405 C   0  0  0  0  0  0  0  0  0  0  0  0
   -2.5541    0.4356   -1.4030 C   0  0  0  0  0  0  0  0  0  0  0  0
   -1.4424    1.4264   -1.2080 C   0  0  0  0  0  0  0  0  0  0  0  0
   -0.2961    0.9462   -0.3071 C   0  0  0  0  0  0  0  0  0  0  0  0
    0.6517   -0.0957   -0.9433 C   0  0  2  0  0  0  0  0  0  0  0  0
    0.0577   -1.5068   -0.9984 C   0  0  0  0  0  0  0  0  0  0  0  0
    1.9927   -0.1184   -0.2091 C   0  0  0  0  0  0  0  0  0  0  0  0
    3.1099    0.3160   -0.8213 C   0  0  0  0  0  0  0  0  0  0  0  0
    4.4366    0.2458   -0.1593 C   0  0  0  0  0  0  0  0  0  0  0  0
    5.4299    0.6534   -0.7569 O   0  0  0  0  0  0  0  0  0  0  0  0
    4.5249   -0.3991    1.2031 C   0  0  0  0  0  0  0  0  0  0  0  0
    3.2432   -0.1790    1.9897 C   0  0  0  0  0  0  0  0  0  0  0  0
    2.0174   -0.6485    1.2083 C   0  0  0  0  0  0  0  0  0  0  0  0
  1  2  1  0
  2  3  1  0
  2  4  2  3
  4  5  1  0
  5  6  1  0
  6  7  1  0
  7  8  1  1
  7  9  1  0
  9 10  2  0
 10 11  1  0
 11 12  2  0
 11 13  1  0
 13 14  1  0
 14 15  1  0
 15  9  1  0
M  END
