
     RDKit          3D

 17 17  0  0  0  0  0  0  0  0999 V2000
    4.3718    0.6075    0.4338 C   0  0  0  0  0  0  0  0  0  0  0  0
    3.6921    0.5840   -0.9275 C   0  0  0  0  0  0  0  0  0  0  0  0
    2.8047   -0.6459   -1.1286 C   0  0  0  0  0  0  0  0  0  0  0  0
    1.6543   -0.6512   -0.2422 N   0  0  0  0  0  0  0  0  0  0  0  0
    1.5291   -1.4838    0.8307 C   0  0  0  0  0  0  0  0  0  0  0  0
    2.3609   -2.2750    1.2463 O   0  0  0  0  0  0  0  0  0  0  0  0
    0.1430   -1.3347    1.3851 C   0  0  0  0  0  0  0  0  0  0  0  0
   -0.3876   -0.0559    0.7336 C   0  0  2  0  0  0  0  0  0  0  0  0
   -1.8685   -0.0724    0.3146 C   0  0  0  0  0  0  0  0  0  0  0  0
   -2.8055   -0.4974    1.4421 C   0  0  0  0  0  0  0  0  0  0  0  0
   -4.2896   -0.4265    1.1748 C   0  0  0  0  0  0  0  0  0  0  0  0
   -2.3922   -0.9332    2.5165 O   0  0  0  0  0  0  0  0  0  0  0  0
   -2.2626    1.3124   -0.1835 C   0  0  0  0  0  0  0  0  0  0  0  0
   -2.8415    1.4143   -1.5720 C   0  0  0  0  0  0  0  0  0  0  0  0
   -2.1877    2.2992    0.5490 O   0  0  0  0  0  0  0  0  0  0  0  0
    0.5200    0.0703   -0.4680 C   0  0  0  0  0  0  0  0  0  0  0  0
    0.2649    0.7228   -1.4690 O   0  0  0  0  0  0  0  0  0  0  0  0
  1  2  1  0
  2  3  1  0
  3  4  1  0
  4  5  1  0
  5  6  2  0
  5  7  1  0
  7  8  1  0
  8  9  1  6
  9 10  1  0
 10 11  1  0
 10 12  2  0
  9 13  1  0
 13 14  1  0
 13 15  2  0
  8 16  1  0
 16 17  2  0
 16  4  1  0
M  END
