
     RDKit          3D

 11 12  0  0  0  0  0  0  0  0999 V2000
   -0.5875    1.5470    1.5469 C   0  0  0  0  0  0  0  0  0  0  0  0
   -0.5833    0.5260    0.4349 C   0  0  1  0  0  0  0  0  0  0  0  0
   -1.1077    1.0376   -0.9267 C   0  0  0  0  0  0  0  0  0  0  0  0
   -0.6154   -0.0445   -1.9136 C   0  0  0  0  0  0  0  0  0  0  0  0
    0.1024   -1.0641   -0.9928 C   0  0  1  0  0  0  0  0  0  0  0  0
    0.7662   -0.1578    0.0813 C   0  0  0  0  0  0  0  0  0  0  0  0
    1.8454    0.7867   -0.4830 C   0  0  0  0  0  0  0  0  0  0  0  0
    1.4220   -0.9278    1.2458 C   0  0  0  0  0  0  0  0  0  0  0  0
   -0.9957   -1.8324   -0.2166 C   0  0  0  0  0  0  0  0  0  0  0  0
   -1.4460   -0.7121    0.6999 C   0  0  0  0  0  0  0  0  0  0  0  0
   -2.3646   -0.7909    1.5005 O   0  0  0  0  0  0  0  0  0  0  0  0
  2  1  1  1
  2  3  1  0
  3  4  1  0
  5  4  1  6
  5  6  1  0
  6  7  1  0
  6  8  1  0
  5  9  1  0
  9 10  1  0
 10 11  2  0
  6  2  1  0
 10  2  1  0
M  END
