
     RDKit          3D

 10 10  0  0  0  0  0  0  0  0999 V2000
    3.6420   -0.4345   -0.0703 C   0  0  0  0  0  0  0  0  0  0  0  0
    2.1650   -0.1734   -0.1342 C   0  0  0  0  0  0  0  0  0  0  0  0
    1.6659    1.0423   -0.4175 C   0  0  0  0  0  0  0  0  0  0  0  0
    0.1933    1.3436   -0.4621 C   0  0  0  0  0  0  0  0  0  0  0  0
   -0.6687    0.2740    0.2489 C   0  0  2  0  0  0  0  0  0  0  0  0
   -0.2044   -1.1213   -0.2029 C   0  0  0  0  0  0  0  0  0  0  0  0
    1.2716   -1.3577    0.1394 C   0  0  0  0  0  0  0  0  0  0  0  0
   -2.1821    0.4363    0.0984 C   0  0  0  0  0  0  0  0  0  0  0  0
   -2.7896    1.1712   -0.8494 C   0  0  0  0  0  0  0  0  0  0  0  0
   -3.0132   -0.2730    1.1401 C   0  0  0  0  0  0  0  0  0  0  0  0
  1  2  1  0
  2  3  2  0
  3  4  1  0
  4  5  1  0
  5  6  1  0
  6  7  1  0
  5  8  1  6
  8  9  2  0
  8 10  1  0
  7  2  1  0
M  END
