
     RDKit          3D

 19 19  0  0  0  0  0  0  0  0999 V2000
   -3.2843    2.4255   -0.2764 C   0  0  0  0  0  0  0  0  0  0  0  0
   -3.5848    1.2250   -1.1539 C   0  0  0  0  0  0  0  0  0  0  0  0
   -2.3724    0.5205   -1.4640 O   0  0  0  0  0  0  0  0  0  0  0  0
   -1.9592   -0.3956   -0.5381 C   0  0  0  0  0  0  0  0  0  0  0  0
   -2.5762   -0.6765    0.4817 O   0  0  0  0  0  0  0  0  0  0  0  0
   -0.6611   -1.0686   -0.9912 C   0  0  2  0  0  0  0  0  0  0  0  0
   -0.8849   -1.7180   -2.1901 F   0  0  0  0  0  0  0  0  0  0  0  0
   -0.2120   -2.1059    0.0437 C   0  0  0  0  0  0  0  0  0  0  0  0
   -0.9974   -3.3933    0.1044 C   0  0  0  0  0  0  0  0  0  0  0  0
    0.7718   -1.9384    0.7681 O   0  0  0  0  0  0  0  0  0  0  0  0
    0.4237   -0.0262   -1.2919 C   0  0  2  0  0  0  0  0  0  0  0  0
    1.7410   -0.5994   -1.8123 C   0  0  0  0  0  0  0  0  0  0  0  0
    2.7888    0.0204   -0.9333 C   0  0  0  0  0  0  0  0  0  0  0  0
    3.9887   -0.1687   -1.0638 O   0  0  0  0  0  0  0  0  0  0  0  0
    2.1793    0.8054    0.0021 N   0  0  0  0  0  0  0  0  0  0  0  0
    2.8964    1.4674    1.0750 C   0  0  0  0  0  0  0  0  0  0  0  0
    3.0641    0.5575    2.2821 C   0  0  0  0  0  0  0  0  0  0  0  0
    0.8187    0.7680   -0.0801 C   0  0  0  0  0  0  0  0  0  0  0  0
    0.0214    1.3130    0.6675 O   0  0  0  0  0  0  0  0  0  0  0  0
  1  2  1  0
  2  3  1  0
  3  4  1  0
  4  5  2  0
  4  6  1  0
  6  7  1  6
  6  8  1  0
  8  9  1  0
  8 10  2  0
  6 11  1  0
 11 12  1  1
 12 13  1  0
 13 14  2  0
 13 15  1  0
 15 16  1  0
 16 17  1  0
 15 18  1  0
 18 19  2  0
 18 11  1  0
M  END
