
     RDKit          3D

 12 12  0  0  0  0  0  0  0  0999 V2000
   -3.2970    0.5569    1.0646 C   0  0  0  0  0  0  0  0  0  0  0  0
   -2.4312   -0.5790    0.5900 C   0  0  0  0  0  0  0  0  0  0  0  0
   -2.5533   -1.7165    1.0451 O   0  0  0  0  0  0  0  0  0  0  0  0
   -1.4291   -0.2762   -0.5065 C   0  0  0  0  0  0  0  0  0  0  0  0
   -0.0423   -0.7755   -0.1200 C   0  0  1  0  0  0  0  0  0  0  0  0
    0.8858   -0.9672   -1.3144 C   0  0  0  0  0  0  0  0  0  0  0  0
    2.2008   -0.4136   -0.8454 C   0  0  0  0  0  0  0  0  0  0  0  0
    3.2436   -0.4886   -1.4768 O   0  0  0  0  0  0  0  0  0  0  0  0
    2.0048    0.2372    0.3377 N   0  0  0  0  0  0  0  0  0  0  0  0
    3.0171    1.0505    0.9666 C   0  0  0  0  0  0  0  0  0  0  0  0
    0.6937    0.2436    0.7124 C   0  0  0  0  0  0  0  0  0  0  0  0
    0.1794    0.9449    1.5703 O   0  0  0  0  0  0  0  0  0  0  0  0
  1  2  1  0
  2  3  2  0
  2  4  1  0
  5  4  1  6
  5  6  1  0
  6  7  1  0
  7  8  2  0
  7  9  1  0
  9 10  1  0
  9 11  1  0
 11 12  2  0
 11  5  1  0
M  END
