
     RDKit          3D

 14 14  0  0  0  0  0  0  0  0999 V2000
   -0.2556   -2.8409    0.6930 C   0  0  0  0  0  0  0  0  0  0  0  0
   -0.7986   -1.4395    0.6091 C   0  0  0  0  0  0  0  0  0  0  0  0
   -1.8018   -1.0293    1.4079 C   0  0  0  0  0  0  0  0  0  0  0  0
   -2.4157    0.3386    1.3601 C   0  0  0  0  0  0  0  0  0  0  0  0
   -1.6790    1.3259    0.4507 C   0  0  0  0  0  0  0  0  0  0  0  0
   -1.1104    0.6677   -0.8291 C   0  0  0  0  0  0  0  0  0  0  0  0
   -0.1662   -0.5271   -0.4376 C   0  0  1  0  0  0  0  0  0  0  0  0
    1.1889   -0.0730    0.0783 C   0  0  0  0  0  0  0  0  0  0  0  0
    2.3455   -0.3448   -0.5465 C   0  0  0  0  0  0  0  0  0  0  0  0
    3.6890    0.0779   -0.0657 C   0  0  0  0  0  0  0  0  0  0  0  0
    4.6755   -0.2305   -0.7332 O   0  0  0  0  0  0  0  0  0  0  0  0
    3.8130    0.8655    1.2114 C   0  0  0  0  0  0  0  0  0  0  0  0
   -2.2706    0.1468   -1.7139 C   0  0  0  0  0  0  0  0  0  0  0  0
   -0.3669    1.7389   -1.6562 C   0  0  0  0  0  0  0  0  0  0  0  0
  1  2  1  0
  2  3  2  0
  3  4  1  0
  4  5  1  0
  5  6  1  0
  6  7  1  0
  7  8  1  1
  8  9  2  0
  9 10  1  0
 10 11  2  0
 10 12  1  0
  6 13  1  0
  6 14  1  0
  7  2  1  0
M  END
