
     RDKit          3D

 24 26  0  0  0  0  0  0  0  0999 V2000
   -2.6139   -0.0701    2.4658 N   0  0  0  0  0  0  0  0  0  0  0  0
   -2.1260   -0.0005    1.4142 C   0  0  0  0  0  0  0  0  0  0  0  0
   -1.4694    0.1527    0.0845 C   0  0  1  0  0  0  0  0  0  0  0  0
   -0.0281   -0.4407    0.2043 C   0  0  0  0  0  0  0  0  0  0  0  0
    0.8962    0.3101    1.1808 C   0  0  0  0  0  0  0  0  0  0  0  0
    2.2907   -0.2695    1.1569 C   0  0  0  0  0  0  0  0  0  0  0  0
    3.2910    0.3199    0.3711 C   0  0  0  0  0  0  0  0  0  0  0  0
    4.5746   -0.2292    0.3341 C   0  0  0  0  0  0  0  0  0  0  0  0
    4.8616   -1.3710    1.0790 C   0  0  0  0  0  0  0  0  0  0  0  0
    6.4430   -2.0472    1.0304 Cl  0  0  0  0  0  0  0  0  0  0  0  0
    3.8763   -1.9688    1.8612 C   0  0  0  0  0  0  0  0  0  0  0  0
    2.5928   -1.4199    1.8995 C   0  0  0  0  0  0  0  0  0  0  0  0
   -2.3050   -0.6134   -0.9814 C   0  0  0  0  0  0  0  0  0  0  0  0
   -2.2659   -2.0563   -0.8909 N   0  0  0  0  0  0  0  0  0  0  0  0
   -1.6616   -2.9301   -1.7399 C   0  0  0  0  0  0  0  0  0  0  0  0
   -1.8564   -4.1565   -1.3145 N   0  0  0  0  0  0  0  0  0  0  0  0
   -2.6148   -3.9762   -0.1930 C   0  0  0  0  0  0  0  0  0  0  0  0
   -2.8919   -2.7035    0.1018 N   0  0  0  0  0  0  0  0  0  0  0  0
   -1.4419    1.6324   -0.3881 C   0  0  0  0  0  0  0  0  0  0  0  0
   -0.6024    2.0355   -1.4483 C   0  0  0  0  0  0  0  0  0  0  0  0
   -0.5859    3.3580   -1.8996 C   0  0  0  0  0  0  0  0  0  0  0  0
   -1.4144    4.3067   -1.3116 C   0  0  0  0  0  0  0  0  0  0  0  0
   -2.2639    3.9326   -0.2765 C   0  0  0  0  0  0  0  0  0  0  0  0
   -2.2833    2.6104    0.1774 C   0  0  0  0  0  0  0  0  0  0  0  0
  1  2  3  0
  3  2  1  1
  3  4  1  0
  4  5  1  0
  5  6  1  0
  6  7  2  0
  7  8  1  0
  8  9  2  0
  9 10  1  0
  9 11  1  0
 11 12  2  0
  3 13  1  0
 13 14  1  0
 14 15  1  0
 15 16  2  0
 16 17  1  0
 17 18  2  0
  3 19  1  0
 19 20  2  0
 20 21  1  0
 21 22  2  0
 22 23  1  0
 23 24  2  0
 12  6  1  0
 18 14  1  0
 24 19  1  0
M  END
