
     RDKit          3D

 18 20  0  0  0  0  0  0  0  0999 V2000
    0.0134   -2.8740   -0.3697 C   0  0  0  0  0  0  0  0  0  0  0  0
    0.1402   -1.4020    0.0342 C   0  0  1  0  0  0  0  0  0  0  0  0
   -1.1658   -0.7010   -0.2302 C   0  0  0  0  0  0  0  0  0  0  0  0
   -1.4604    0.1783   -1.1712 N   0  0  0  0  0  0  0  0  0  0  0  0
   -2.7823    0.4665   -0.9473 C   0  0  0  0  0  0  0  0  0  0  0  0
   -3.6627    1.3324   -1.6080 C   0  0  0  0  0  0  0  0  0  0  0  0
   -4.9835    1.4158   -1.1404 C   0  0  0  0  0  0  0  0  0  0  0  0
   -5.4133    0.6558   -0.0444 C   0  0  0  0  0  0  0  0  0  0  0  0
   -4.5442   -0.2144    0.6255 C   0  0  0  0  0  0  0  0  0  0  0  0
   -3.2468   -0.2667    0.1314 C   0  0  0  0  0  0  0  0  0  0  0  0
   -2.2139   -1.0252    0.5966 O   0  0  0  0  0  0  0  0  0  0  0  0
    0.5809   -1.2489    1.4992 C   0  0  0  0  0  0  0  0  0  0  0  0
    1.2253    0.1366    1.5919 C   0  0  0  0  0  0  0  0  0  0  0  0
    1.6423    0.5144    0.1591 C   0  0  0  0  0  0  0  0  0  0  0  0
    3.0806    1.0511   -0.0113 C   0  0  0  0  0  0  0  0  0  0  0  0
    3.2488    2.3892    0.7175 C   0  0  0  0  0  0  0  0  0  0  0  0
    4.1816    0.0846    0.4361 C   0  0  0  0  0  0  0  0  0  0  0  0
    1.3152   -0.7237   -0.6956 C   0  0  0  0  0  0  0  0  0  0  0  0
  2  1  1  6
  2  3  1  0
  3  4  2  0
  4  5  1  0
  5  6  2  0
  6  7  1  0
  7  8  2  0
  8  9  1  0
  9 10  2  0
 10 11  1  0
  2 12  1  0
 12 13  1  0
 13 14  1  0
 14 15  1  0
 15 16  1  0
 15 17  1  0
 14 18  1  0
 18  2  1  0
 11  3  1  0
 10  5  1  0
M  END
