
     RDKit          3D

 21 21  0  0  0  0  0  0  0  0999 V2000
    4.9481   -0.8330   -0.8652 C   0  0  0  0  0  0  0  0  0  0  0  0
    4.6383    0.4071   -0.0484 C   0  0  0  0  0  0  0  0  0  0  0  0
    3.2151    0.5965    0.0381 O   0  0  0  0  0  0  0  0  0  0  0  0
    2.5805   -0.0682    1.0479 C   0  0  0  0  0  0  0  0  0  0  0  0
    3.1532   -0.7795    1.8627 O   0  0  0  0  0  0  0  0  0  0  0  0
    1.0757    0.2022    1.0407 C   0  0  1  0  0  0  0  0  0  0  0  0
    0.4348   -0.7940    1.7483 F   0  0  0  0  0  0  0  0  0  0  0  0
    0.7921    1.5557    1.7081 C   0  0  0  0  0  0  0  0  0  0  0  0
    1.4712    2.7897    1.1654 C   0  0  0  0  0  0  0  0  0  0  0  0
    0.0346    1.6489    2.6779 O   0  0  0  0  0  0  0  0  0  0  0  0
    0.5132    0.1290   -0.3853 C   0  0  1  0  0  0  0  0  0  0  0  0
    0.4115   -1.2889   -0.9216 C   0  0  0  0  0  0  0  0  0  0  0  0
   -1.0406   -1.6394   -0.7550 C   0  0  0  0  0  0  0  0  0  0  0  0
   -1.4890   -2.7233   -1.0968 O   0  0  0  0  0  0  0  0  0  0  0  0
   -1.7278   -0.5474   -0.2884 N   0  0  0  0  0  0  0  0  0  0  0  0
   -3.2139   -0.4802   -0.2075 C   0  0  0  0  0  0  0  0  0  0  0  0
   -3.8036   -0.2235   -1.6049 C   0  0  0  0  0  0  0  0  0  0  0  0
   -3.8142   -1.7881    0.3578 C   0  0  0  0  0  0  0  0  0  0  0  0
   -3.6729    0.6471    0.7469 C   0  0  0  0  0  0  0  0  0  0  0  0
   -0.9229    0.5540   -0.3867 C   0  0  0  0  0  0  0  0  0  0  0  0
   -1.2442    1.7280   -0.4950 O   0  0  0  0  0  0  0  0  0  0  0  0
  1  2  1  0
  2  3  1  0
  3  4  1  0
  4  5  2  0
  4  6  1  0
  6  7  1  1
  6  8  1  0
  8  9  1  0
  8 10  2  0
  6 11  1  0
 11 12  1  1
 12 13  1  0
 13 14  2  0
 13 15  1  0
 15 16  1  0
 16 17  1  0
 16 18  1  0
 16 19  1  0
 15 20  1  0
 20 21  2  0
 20 11  1  0
M  END
