
     RDKit          3D

 23 24  0  0  0  0  0  0  0  0999 V2000
    4.3740    0.7558    1.5584 F   0  0  0  0  0  0  0  0  0  0  0  0
    4.2667    0.3912    0.2508 C   0  0  0  0  0  0  0  0  0  0  0  0
    5.3447    0.9294   -0.3823 F   0  0  0  0  0  0  0  0  0  0  0  0
    2.9593    0.9043   -0.3590 C   0  0  0  0  0  0  0  0  0  0  0  0
    2.8961    0.5828   -1.6793 F   0  0  0  0  0  0  0  0  0  0  0  0
    2.8537    2.2526   -0.2712 F   0  0  0  0  0  0  0  0  0  0  0  0
    1.8149    0.3223    0.2621 O   0  0  0  0  0  0  0  0  0  0  0  0
    0.5917    0.8620   -0.2346 C   0  0  0  0  0  0  0  0  0  0  0  0
   -0.5703   -0.0368    0.2390 C   0  0  2  0  0  0  0  0  0  0  0  0
   -0.6518   -1.3672   -0.5399 C   0  0  0  0  0  0  0  0  0  0  0  0
    0.4881   -2.2331   -0.3198 N   0  0  0  0  0  0  0  0  0  0  0  0
    1.5251   -2.4799   -1.1649 C   0  0  0  0  0  0  0  0  0  0  0  0
    2.3941   -3.2662   -0.5723 N   0  0  0  0  0  0  0  0  0  0  0  0
    1.8059   -3.5153    0.6363 C   0  0  0  0  0  0  0  0  0  0  0  0
    0.6353   -2.9040    0.8366 N   0  0  0  0  0  0  0  0  0  0  0  0
   -1.9121    0.6941    0.2665 C   0  0  0  0  0  0  0  0  0  0  0  0
   -2.5534    0.8112    1.5180 C   0  0  0  0  0  0  0  0  0  0  0  0
   -3.7827    1.4613    1.6468 C   0  0  0  0  0  0  0  0  0  0  0  0
   -4.3946    2.0061    0.5251 C   0  0  0  0  0  0  0  0  0  0  0  0
   -5.9085    2.8069    0.6797 Cl  0  0  0  0  0  0  0  0  0  0  0  0
   -3.7889    1.9047   -0.7225 C   0  0  0  0  0  0  0  0  0  0  0  0
   -2.5567    1.2529   -0.8537 C   0  0  0  0  0  0  0  0  0  0  0  0
   -1.8988    1.1765   -2.4481 Cl  0  0  0  0  0  0  0  0  0  0  0  0
  1  2  1  0
  2  3  1  0
  2  4  1  0
  4  5  1  0
  4  6  1  0
  4  7  1  0
  7  8  1  0
  9  8  1  6
  9 10  1  0
 10 11  1  0
 11 12  1  0
 12 13  2  0
 13 14  1  0
 14 15  2  0
  9 16  1  0
 16 17  2  0
 17 18  1  0
 18 19  2  0
 19 20  1  0
 19 21  1  0
 21 22  2  0
 22 23  1  0
 15 11  1  0
 22 16  1  0
M  END
