
     RDKit          3D

 15 15  0  0  0  0  0  0  0  0999 V2000
   -1.4635    2.0509    1.2345 C   0  0  0  0  0  0  0  0  0  0  0  0
   -1.1856    0.7116    0.6008 C   0  0  0  0  0  0  0  0  0  0  0  0
   -1.5007   -0.3367    1.1626 O   0  0  0  0  0  0  0  0  0  0  0  0
   -0.5348    0.7081   -0.7719 C   0  0  0  0  0  0  0  0  0  0  0  0
   -1.4849    0.2989   -1.8843 C   0  0  0  0  0  0  0  0  0  0  0  0
   -2.9288    0.7215   -1.7858 C   0  0  0  0  0  0  0  0  0  0  0  0
   -1.0773   -0.2922   -2.8865 O   0  0  0  0  0  0  0  0  0  0  0  0
    0.7451   -0.1454   -0.7895 C   0  0  2  0  0  0  0  0  0  0  0  0
    0.5678   -1.6638   -0.7241 C   0  0  0  0  0  0  0  0  0  0  0  0
    1.5729   -2.1109    0.2979 C   0  0  0  0  0  0  0  0  0  0  0  0
    1.8009   -3.2777    0.5794 O   0  0  0  0  0  0  0  0  0  0  0  0
    2.1506   -1.0106    0.8623 N   0  0  0  0  0  0  0  0  0  0  0  0
    3.0582   -1.0884    1.9809 C   0  0  0  0  0  0  0  0  0  0  0  0
    1.6301    0.1551    0.3909 C   0  0  0  0  0  0  0  0  0  0  0  0
    1.8284    1.2814    0.8234 O   0  0  0  0  0  0  0  0  0  0  0  0
  1  2  1  0
  2  3  2  0
  2  4  1  0
  4  5  1  0
  5  6  1  0
  5  7  2  0
  8  4  1  1
  8  9  1  0
  9 10  1  0
 10 11  2  0
 10 12  1  0
 12 13  1  0
 12 14  1  0
 14 15  2  0
 14  8  1  0
M  END
