
     RDKit          3D

 13 14  0  0  0  0  0  0  0  0999 V2000
   -3.7380   -0.8644   -0.8644 C   0  0  0  0  0  0  0  0  0  0  0  0
   -2.9275   -0.9515    0.2900 O   0  0  0  0  0  0  0  0  0  0  0  0
   -1.8043    0.1904    0.5259 P   0  0  1  0  0  5  0  0  0  0  0  0
   -2.4500    2.0061    0.7358 S   0  0  0  0  0  0  0  0  0  0  0  0
   -1.0019   -0.4351    1.7805 O   0  0  0  0  0  0  0  0  0  0  0  0
    0.2780    0.1173    2.0197 C   0  0  0  0  0  0  0  0  0  0  0  0
    1.1284    0.1309    0.7799 C   0  0  0  0  0  0  0  0  0  0  0  0
    2.5190    0.2758    0.8941 C   0  0  0  0  0  0  0  0  0  0  0  0
    3.3264    0.3031   -0.2452 C   0  0  0  0  0  0  0  0  0  0  0  0
    2.7536    0.1907   -1.5105 C   0  0  0  0  0  0  0  0  0  0  0  0
    1.3725    0.0574   -1.6381 C   0  0  0  0  0  0  0  0  0  0  0  0
    0.5702    0.0396   -0.4985 C   0  0  0  0  0  0  0  0  0  0  0  0
   -0.7761   -0.0931   -0.6892 O   0  0  0  0  0  0  0  0  0  0  0  0
  1  2  1  0
  3  2  1  6
  3  4  2  0
  3  5  1  0
  5  6  1  0
  6  7  1  0
  7  8  2  0
  8  9  1  0
  9 10  2  0
 10 11  1  0
 11 12  2  0
 12 13  1  0
 13  3  1  0
 12  7  1  0
M  END
