
     RDKit          3D

 11 10  0  0  0  0  0  0  0  0999 V2000
    4.1147    1.0489   -0.2106 C   0  0  0  0  0  0  0  0  0  0  0  0
    2.9234    0.1963    0.1414 C   0  0  0  0  0  0  0  0  0  0  0  0
    2.9430   -0.3418    1.5452 C   0  0  0  0  0  0  0  0  0  0  0  0
    1.9467   -0.0213   -0.7610 C   0  0  0  0  0  0  0  0  0  0  0  0
    0.7074   -0.8597   -0.5989 C   0  0  0  0  0  0  0  0  0  0  0  0
   -0.5449    0.0181   -0.4919 C   0  0  0  0  0  0  0  0  0  0  0  0
   -1.8341   -0.7680   -0.1740 C   0  0  2  0  0  0  0  0  0  0  0  0
   -2.0857   -1.8914   -1.1880 C   0  0  0  0  0  0  0  0  0  0  0  0
   -3.0869    0.1395   -0.1208 C   0  0  0  0  0  0  0  0  0  0  0  0
   -3.0382    1.2353    0.9402 C   0  0  0  0  0  0  0  0  0  0  0  0
   -2.2970    2.3483    0.4629 O   0  0  0  0  0  0  0  0  0  0  0  0
  1  2  1  0
  2  3  1  0
  2  4  2  3
  4  5  1  0
  5  6  1  0
  6  7  1  0
  7  8  1  6
  7  9  1  0
  9 10  1  0
 10 11  1  0
M  END
