
     RDKit          3D

 11 11  0  0  0  0  0  0  0  0999 V2000
    3.1483   -0.6517   -0.4209 C   0  0  0  0  0  0  0  0  0  0  0  0
    1.6695   -0.4762   -0.5591 C   0  0  0  0  0  0  0  0  0  0  0  0
    0.7770   -1.4626   -0.3770 C   0  0  0  0  0  0  0  0  0  0  0  0
   -0.7093   -1.2909   -0.4865 C   0  0  0  0  0  0  0  0  0  0  0  0
   -1.1716    0.1687   -0.3004 C   0  0  2  0  0  0  0  0  0  0  0  0
   -0.3018    1.0870   -1.1710 C   0  0  0  0  0  0  0  0  0  0  0  0
    1.1830    0.8816   -0.9503 C   0  0  0  0  0  0  0  0  0  0  0  0
    1.9855    1.7946   -1.1429 O   0  0  0  0  0  0  0  0  0  0  0  0
   -1.3027    0.5637    1.1780 C   0  0  0  0  0  0  0  0  0  0  0  0
   -0.5438    1.4789    1.8069 C   0  0  0  0  0  0  0  0  0  0  0  0
   -2.4229   -0.1097    1.9359 C   0  0  0  0  0  0  0  0  0  0  0  0
  1  2  1  0
  2  3  2  0
  3  4  1  0
  4  5  1  0
  5  6  1  0
  6  7  1  0
  7  8  2  0
  5  9  1  1
  9 10  2  0
  9 11  1  0
  7  2  1  0
M  END
