
     RDKit          3D

 20 20  0  0  0  0  0  0  0  0999 V2000
    4.3927    1.3506    0.2190 C   0  0  0  0  0  0  0  0  0  0  0  0
    4.0934   -0.1200    0.4691 C   0  0  0  0  0  0  0  0  0  0  0  0
    3.4841   -0.8294   -0.7435 C   0  0  0  0  0  0  0  0  0  0  0  0
    2.1590   -0.3429   -1.0820 N   0  0  0  0  0  0  0  0  0  0  0  0
    1.9220    0.6089   -2.0312 C   0  0  0  0  0  0  0  0  0  0  0  0
    2.7346    1.0984   -2.8002 O   0  0  0  0  0  0  0  0  0  0  0  0
    0.4775    1.0079   -1.9615 C   0  0  0  0  0  0  0  0  0  0  0  0
   -0.1581   -0.0567   -1.0675 C   0  0  2  0  0  0  0  0  0  0  0  0
   -1.1904    0.4857   -0.0675 C   0  0  2  0  0  0  0  0  0  0  0  0
   -1.8489    1.5091   -0.7212 F   0  0  0  0  0  0  0  0  0  0  0  0
   -0.5246    1.0536    1.1899 C   0  0  0  0  0  0  0  0  0  0  0  0
   -1.1266    0.7587    2.5394 C   0  0  0  0  0  0  0  0  0  0  0  0
    0.4623    1.7938    1.1023 O   0  0  0  0  0  0  0  0  0  0  0  0
   -2.1983   -0.6200    0.2476 C   0  0  0  0  0  0  0  0  0  0  0  0
   -1.9537   -1.8181    0.2774 O   0  0  0  0  0  0  0  0  0  0  0  0
   -3.4263   -0.0817    0.5094 O   0  0  0  0  0  0  0  0  0  0  0  0
   -4.4759   -1.0129    0.8173 C   0  0  0  0  0  0  0  0  0  0  0  0
   -5.1232   -1.5124   -0.4604 C   0  0  0  0  0  0  0  0  0  0  0  0
    1.0335   -0.6781   -0.3885 C   0  0  0  0  0  0  0  0  0  0  0  0
    0.9707   -1.3798    0.6095 O   0  0  0  0  0  0  0  0  0  0  0  0
  1  2  1  0
  2  3  1  0
  3  4  1  0
  4  5  1  0
  5  6  2  0
  5  7  1  0
  8  7  1  6
  8  9  1  0
  9 10  1  6
  9 11  1  0
 11 12  1  0
 11 13  2  0
  9 14  1  0
 14 15  2  0
 14 16  1  0
 16 17  1  0
 17 18  1  0
  8 19  1  0
 19 20  2  0
 19  4  1  0
M  END
