
     RDKit          3D

 15 16  0  0  0  0  0  0  0  0999 V2000
   -3.8075    0.2262    0.9699 C   0  0  0  0  0  0  0  0  0  0  0  0
   -2.5728   -0.1834    0.3469 N   0  0  0  0  0  0  0  0  0  0  0  0
   -1.9569   -1.3698    0.6131 C   0  0  0  0  0  0  0  0  0  0  0  0
   -2.3730   -2.2668    1.3315 O   0  0  0  0  0  0  0  0  0  0  0  0
   -0.6452   -1.4184   -0.1173 C   0  0  0  0  0  0  0  0  0  0  0  0
   -0.6170   -0.1299   -0.9368 C   0  0  2  0  0  0  0  0  0  0  0  0
    0.6469    0.7491   -0.8616 C   0  0  2  0  0  0  0  0  0  0  0  0
    1.7569    0.2750   -1.8041 C   0  0  0  0  0  0  0  0  0  0  0  0
    2.7082   -1.1454   -1.1864 S   0  0  0  0  0  0  0  0  0  0  0  0
    3.1455   -0.5445    0.4831 C   0  0  0  0  0  0  0  0  0  0  0  0
    2.6390    0.8498    0.8002 C   0  0  0  0  0  0  0  0  0  0  0  0
    1.1510    0.9139    0.5664 C   0  0  0  0  0  0  0  0  0  0  0  0
    0.3706    1.1001    1.5006 O   0  0  0  0  0  0  0  0  0  0  0  0
   -1.8403    0.6254   -0.4701 C   0  0  0  0  0  0  0  0  0  0  0  0
   -2.1262    1.7593   -0.8273 O   0  0  0  0  0  0  0  0  0  0  0  0
  1  2  1  0
  2  3  1  0
  3  4  2  0
  3  5  1  0
  6  5  1  1
  6  7  1  0
  7  8  1  6
  8  9  1  0
  9 10  1  0
 10 11  1  0
 11 12  1  0
 12 13  2  0
  6 14  1  0
 14 15  2  0
 14  2  1  0
 12  7  1  0
M  END
