
     RDKit          3D

 19 20  0  0  0  0  0  0  0  0999 V2000
   -1.2545    2.3405   -1.6683 O   0  0  0  0  0  0  0  0  0  0  0  0
   -1.5033    1.2746   -1.1255 C   0  0  0  0  0  0  0  0  0  0  0  0
   -2.8973    0.6940   -0.9769 C   0  0  1  0  0  0  0  0  0  0  0  0
   -3.8625    0.9035   -2.4444 Cl  0  0  0  0  0  0  0  0  0  0  0  0
   -2.6386   -0.7773   -0.6774 C   0  0  2  0  0  0  0  0  0  0  0  0
   -3.7923   -1.4269    0.0709 C   0  0  0  0  0  0  0  0  0  0  0  0
   -3.4250   -3.1203    0.4747 Cl  0  0  0  0  0  0  0  0  0  0  0  0
   -1.3392   -0.7182    0.1122 C   0  0  0  0  0  0  0  0  0  0  0  0
   -0.6200    0.4016   -0.4568 N   0  0  0  0  0  0  0  0  0  0  0  0
    0.7724    0.6072   -0.2453 C   0  0  0  0  0  0  0  0  0  0  0  0
    1.4732    1.6394   -0.8800 C   0  0  0  0  0  0  0  0  0  0  0  0
    2.8421    1.8323   -0.6632 C   0  0  0  0  0  0  0  0  0  0  0  0
    3.5422    0.9913    0.1949 C   0  0  0  0  0  0  0  0  0  0  0  0
    2.8785   -0.0569    0.8394 C   0  0  0  0  0  0  0  0  0  0  0  0
    3.6142   -0.9650    1.7931 C   0  0  0  0  0  0  0  0  0  0  0  0
    3.1674   -2.2516    1.7468 F   0  0  0  0  0  0  0  0  0  0  0  0
    4.9537   -1.0281    1.5570 F   0  0  0  0  0  0  0  0  0  0  0  0
    3.4784   -0.5706    3.0889 F   0  0  0  0  0  0  0  0  0  0  0  0
    1.4977   -0.2330    0.6168 C   0  0  0  0  0  0  0  0  0  0  0  0
  1  2  2  0
  2  3  1  0
  3  4  1  6
  3  5  1  0
  5  6  1  1
  6  7  1  0
  5  8  1  0
  8  9  1  0
  9 10  1  0
 10 11  2  0
 11 12  1  0
 12 13  2  0
 13 14  1  0
 14 15  1  0
 15 16  1  0
 15 17  1  0
 15 18  1  0
 14 19  2  0
  9  2  1  0
 19 10  1  0
M  END
