
     RDKit          3D

 18 20  0  0  0  0  0  0  0  0999 V2000
   -3.0983    0.8444   -0.8609 C   0  0  0  0  0  0  0  0  0  0  0  0
   -2.0158   -0.1166   -0.4627 C   0  0  2  0  0  0  0  0  0  0  0  0
   -2.4077   -1.5231   -0.0522 C   0  0  0  0  0  0  0  0  0  0  0  0
   -1.8503   -0.5676    0.9854 C   0  0  2  0  0  0  0  0  0  0  0  0
   -2.7668   -0.0678    2.0651 C   0  0  0  0  0  0  0  0  0  0  0  0
   -0.3663   -0.5374    1.2247 C   0  0  0  0  0  0  0  0  0  0  0  0
    0.0778   -0.8659    2.3117 O   0  0  0  0  0  0  0  0  0  0  0  0
    0.2801   -0.0937    0.0828 N   0  0  0  0  0  0  0  0  0  0  0  0
    1.7026    0.0698   -0.0343 C   0  0  0  0  0  0  0  0  0  0  0  0
    2.5865   -0.4048    0.9509 C   0  0  0  0  0  0  0  0  0  0  0  0
    3.9720   -0.2392    0.8306 C   0  0  0  0  0  0  0  0  0  0  0  0
    5.0130   -0.8473    2.0606 Cl  0  0  0  0  0  0  0  0  0  0  0  0
    4.5199    0.4050   -0.2683 C   0  0  0  0  0  0  0  0  0  0  0  0
    3.6661    0.8845   -1.2499 C   0  0  0  0  0  0  0  0  0  0  0  0
    4.3221    1.6978   -2.6189 Cl  0  0  0  0  0  0  0  0  0  0  0  0
    2.2796    0.7219   -1.1390 C   0  0  0  0  0  0  0  0  0  0  0  0
   -0.6158    0.1263   -0.9503 C   0  0  0  0  0  0  0  0  0  0  0  0
   -0.4239    0.4288   -2.1159 O   0  0  0  0  0  0  0  0  0  0  0  0
  2  1  1  1
  2  3  1  0
  3  4  1  0
  4  5  1  1
  4  6  1  0
  6  7  2  0
  6  8  1  0
  8  9  1  0
  9 10  2  0
 10 11  1  0
 11 12  1  0
 11 13  2  0
 13 14  1  0
 14 15  1  0
 14 16  2  0
  8 17  1  0
 17 18  2  0
  4  2  1  0
 16  9  1  0
 17  2  1  0
M  END
