
     RDKit          3D

 27 29  0  0  0  0  0  0  0  0999 V2000
   -3.6720    0.4691    0.1317 C   0  0  0  0  0  0  0  0  0  0  0  0
   -2.7531   -0.7023   -0.2785 C   0  0  1  0  0  0  0  0  0  0  0  0
   -3.5000   -1.8600    0.1361 O   0  0  0  0  0  0  0  0  0  0  0  0
   -2.6048   -0.7810   -1.8197 C   0  0  0  0  0  0  0  0  0  0  0  0
   -2.2633    0.4595   -2.4760 N   0  0  0  0  0  0  0  0  0  0  0  0
   -3.0791    1.2570   -3.2179 C   0  0  0  0  0  0  0  0  0  0  0  0
   -2.3985    2.2881   -3.6618 N   0  0  0  0  0  0  0  0  0  0  0  0
   -1.1424    2.0571   -3.1791 C   0  0  0  0  0  0  0  0  0  0  0  0
   -1.0105    0.9484   -2.4464 N   0  0  0  0  0  0  0  0  0  0  0  0
   -1.3929   -0.7235    0.4421 C   0  0  0  0  0  0  0  0  0  0  0  0
   -0.8034    0.5017    0.8314 C   0  0  0  0  0  0  0  0  0  0  0  0
    0.4336    0.5596    1.4769 C   0  0  0  0  0  0  0  0  0  0  0  0
    1.1316   -0.6113    1.7323 C   0  0  0  0  0  0  0  0  0  0  0  0
    2.3393   -0.6299    2.3878 O   0  0  0  0  0  0  0  0  0  0  0  0
    3.3222    0.2201    1.9320 C   0  0  0  0  0  0  0  0  0  0  0  0
    4.0883    0.8692    2.9022 C   0  0  0  0  0  0  0  0  0  0  0  0
    5.1246    1.7220    2.5169 C   0  0  0  0  0  0  0  0  0  0  0  0
    5.3984    1.9093    1.1623 C   0  0  0  0  0  0  0  0  0  0  0  0
    6.6748    2.9604    0.6870 Cl  0  0  0  0  0  0  0  0  0  0  0  0
    4.6499    1.2459    0.1904 C   0  0  0  0  0  0  0  0  0  0  0  0
    3.6134    0.3920    0.5751 C   0  0  0  0  0  0  0  0  0  0  0  0
    0.5785   -1.8372    1.3773 C   0  0  0  0  0  0  0  0  0  0  0  0
   -0.6682   -1.9208    0.7139 C   0  0  0  0  0  0  0  0  0  0  0  0
   -1.1591   -3.3183    0.3673 C   0  0  0  0  0  0  0  0  0  0  0  0
   -0.1753   -4.2633    0.4555 F   0  0  0  0  0  0  0  0  0  0  0  0
   -1.6421   -3.4398   -0.8981 F   0  0  0  0  0  0  0  0  0  0  0  0
   -2.1369   -3.7482    1.2136 F   0  0  0  0  0  0  0  0  0  0  0  0
  2  1  1  6
  2  3  1  0
  2  4  1  0
  4  5  1  0
  5  6  1  0
  6  7  2  0
  7  8  1  0
  8  9  2  0
  2 10  1  0
 10 11  2  0
 11 12  1  0
 12 13  2  0
 13 14  1  0
 14 15  1  0
 15 16  2  0
 16 17  1  0
 17 18  2  0
 18 19  1  0
 18 20  1  0
 20 21  2  0
 13 22  1  0
 22 23  2  0
 23 24  1  0
 24 25  1  0
 24 26  1  0
 24 27  1  0
  9  5  1  0
 23 10  1  0
 21 15  1  0
M  END
