
     RDKit          3D

 23 24  0  0  0  0  0  0  0  0999 V2000
    6.9696    1.3665    0.5344 C   0  0  0  0  0  0  0  0  0  0  0  0
    6.0096    0.6659   -0.4120 C   0  0  0  0  0  0  0  0  0  0  0  0
    4.8415    0.0356    0.3457 C   0  0  0  0  0  0  0  0  0  0  0  0
    3.8789   -0.6770   -0.6038 C   0  0  0  0  0  0  0  0  0  0  0  0
    2.7216   -1.3971    0.0999 C   0  0  0  0  0  0  0  0  0  0  0  0
    1.7731   -0.4543    0.8609 C   0  0  2  0  0  0  0  0  0  0  0  0
    2.0613   -0.4415    2.3621 C   0  0  0  0  0  0  0  0  0  0  0  0
    0.4127   -0.9280    0.7263 O   0  0  0  0  0  0  0  0  0  0  0  0
   -0.2454   -0.5433   -0.4098 C   0  0  0  0  0  0  0  0  0  0  0  0
    0.2517    0.1153   -1.3137 O   0  0  0  0  0  0  0  0  0  0  0  0
   -1.6865   -1.0276   -0.3519 C   0  0  0  0  0  0  0  0  0  0  0  0
   -2.3535   -0.7035   -1.5756 O   0  0  0  0  0  0  0  0  0  0  0  0
   -3.4590    0.0974   -1.3944 C   0  0  0  0  0  0  0  0  0  0  0  0
   -3.4322    1.2964   -2.1123 C   0  0  0  0  0  0  0  0  0  0  0  0
   -4.5090    2.1675   -2.0297 C   0  0  0  0  0  0  0  0  0  0  0  0
   -5.6101    1.8285   -1.2426 C   0  0  0  0  0  0  0  0  0  0  0  0
   -6.9200    2.9671   -1.1972 Cl  0  0  0  0  0  0  0  0  0  0  0  0
   -5.6521    0.6075   -0.5201 C   0  0  0  0  0  0  0  0  0  0  0  0
   -6.7379    0.2126    0.2961 C   0  0  0  0  0  0  0  0  0  0  0  0
   -6.7282   -1.0117    0.9524 C   0  0  0  0  0  0  0  0  0  0  0  0
   -5.6238   -1.8173    0.7917 C   0  0  0  0  0  0  0  0  0  0  0  0
   -4.5538   -1.4744    0.0470 N   0  0  0  0  0  0  0  0  0  0  0  0
   -4.5568   -0.2851   -0.6060 C   0  0  0  0  0  0  0  0  0  0  0  0
  1  2  1  0
  2  3  1  0
  3  4  1  0
  4  5  1  0
  5  6  1  0
  6  7  1  1
  6  8  1  0
  8  9  1  0
  9 10  2  0
  9 11  1  0
 11 12  1  0
 12 13  1  0
 13 14  2  0
 14 15  1  0
 15 16  2  0
 16 17  1  0
 16 18  1  0
 18 19  2  0
 19 20  1  0
 20 21  2  0
 21 22  1  0
 22 23  2  0
 23 13  1  0
 23 18  1  0
M  END
