
     RDKit          3D

 19 20  0  0  0  0  0  0  0  0999 V2000
   -0.2025    2.4210    0.7000 O   0  0  0  0  0  0  0  0  0  0  0  0
   -0.9413    1.4734    0.4757 C   0  0  0  0  0  0  0  0  0  0  0  0
   -2.4603    1.5454    0.5070 C   0  0  2  0  0  0  0  0  0  0  0  0
   -2.9980    2.4176    1.9549 Cl  0  0  0  0  0  0  0  0  0  0  0  0
   -2.8996    0.0825    0.5128 C   0  0  1  0  0  0  0  0  0  0  0  0
   -4.2250   -0.1907   -0.1888 C   0  0  0  0  0  0  0  0  0  0  0  0
   -5.6131    0.4783    0.6890 Cl  0  0  0  0  0  0  0  0  0  0  0  0
   -1.7591   -0.6097   -0.2223 C   0  0  0  0  0  0  0  0  0  0  0  0
   -0.5849    0.1720    0.0759 N   0  0  0  0  0  0  0  0  0  0  0  0
    0.7351   -0.3071   -0.1592 C   0  0  0  0  0  0  0  0  0  0  0  0
    0.9453   -1.5458   -0.7860 C   0  0  0  0  0  0  0  0  0  0  0  0
    2.2347   -2.0315   -1.0264 C   0  0  0  0  0  0  0  0  0  0  0  0
    3.3448   -1.2885   -0.6393 C   0  0  0  0  0  0  0  0  0  0  0  0
    3.1735   -0.0556   -0.0013 C   0  0  0  0  0  0  0  0  0  0  0  0
    4.3625    0.7738    0.4193 C   0  0  0  0  0  0  0  0  0  0  0  0
    4.5734    1.8360   -0.4052 F   0  0  0  0  0  0  0  0  0  0  0  0
    5.5314    0.0715    0.4255 F   0  0  0  0  0  0  0  0  0  0  0  0
    4.2354    1.2866    1.6740 F   0  0  0  0  0  0  0  0  0  0  0  0
    1.8678    0.4228    0.2272 C   0  0  0  0  0  0  0  0  0  0  0  0
  1  2  2  0
  2  3  1  0
  3  4  1  1
  3  5  1  0
  5  6  1  6
  6  7  1  0
  5  8  1  0
  8  9  1  0
  9 10  1  0
 10 11  2  0
 11 12  1  0
 12 13  2  0
 13 14  1  0
 14 15  1  0
 15 16  1  0
 15 17  1  0
 15 18  1  0
 14 19  2  0
  9  2  1  0
 19 10  1  0
M  END
