
     RDKit          3D

 21 21  0  0  0  0  0  0  0  0999 V2000
    4.8150    1.7868    0.1113 C   0  0  0  0  0  0  0  0  0  0  0  0
    4.6055    0.5783    1.0039 C   0  0  0  0  0  0  0  0  0  0  0  0
    3.2049    0.2769    1.1019 O   0  0  0  0  0  0  0  0  0  0  0  0
    2.6877   -0.5287    0.1347 C   0  0  0  0  0  0  0  0  0  0  0  0
    3.3272   -0.9841   -0.8063 O   0  0  0  0  0  0  0  0  0  0  0  0
    1.1947   -0.7518    0.3384 C   0  0  2  0  0  0  0  0  0  0  0  0
    0.7425   -0.0741    1.4504 F   0  0  0  0  0  0  0  0  0  0  0  0
    0.9173   -2.2521    0.5087 C   0  0  0  0  0  0  0  0  0  0  0  0
    1.3519   -3.2083   -0.5759 C   0  0  0  0  0  0  0  0  0  0  0  0
    0.3781   -2.6886    1.5303 O   0  0  0  0  0  0  0  0  0  0  0  0
    0.4573   -0.1486   -0.8627 C   0  0  2  0  0  0  0  0  0  0  0  0
    0.3669    1.3679   -0.8220 C   0  0  0  0  0  0  0  0  0  0  0  0
   -1.0237    1.6373   -0.3202 C   0  0  0  0  0  0  0  0  0  0  0  0
   -1.4449    2.7722   -0.1551 O   0  0  0  0  0  0  0  0  0  0  0  0
   -1.7077    0.4538   -0.2015 N   0  0  0  0  0  0  0  0  0  0  0  0
   -3.1716    0.3693    0.0630 C   0  0  0  0  0  0  0  0  0  0  0  0
   -3.9542    0.6589   -1.2293 C   0  0  0  0  0  0  0  0  0  0  0  0
   -3.5673   -1.0311    0.5874 C   0  0  0  0  0  0  0  0  0  0  0  0
   -3.6142    1.3729    1.1527 C   0  0  0  0  0  0  0  0  0  0  0  0
   -0.9887   -0.5353   -0.8155 C   0  0  0  0  0  0  0  0  0  0  0  0
   -1.3914   -1.5847   -1.2944 O   0  0  0  0  0  0  0  0  0  0  0  0
  1  2  1  0
  2  3  1  0
  3  4  1  0
  4  5  2  0
  4  6  1  0
  6  7  1  1
  6  8  1  0
  8  9  1  0
  8 10  2  0
  6 11  1  0
 11 12  1  1
 12 13  1  0
 13 14  2  0
 13 15  1  0
 15 16  1  0
 16 17  1  0
 16 18  1  0
 16 19  1  0
 15 20  1  0
 20 21  2  0
 20 11  1  0
M  END
