
     RDKit          3D

 16 16  0  0  0  0  0  0  0  0999 V2000
    3.5469   -0.7918    1.8581 C   0  0  0  0  0  0  0  0  0  0  0  0
    3.4626   -0.2513    0.4391 C   0  0  0  0  0  0  0  0  0  0  0  0
    2.1523    0.3034    0.1528 N   0  0  0  0  0  0  0  0  0  0  0  0
    1.7984    1.5837    0.4590 C   0  0  0  0  0  0  0  0  0  0  0  0
    2.5173    2.4495    0.9327 O   0  0  0  0  0  0  0  0  0  0  0  0
    0.3343    1.7569    0.1845 C   0  0  0  0  0  0  0  0  0  0  0  0
   -0.0819    0.4669   -0.5299 C   0  0  2  0  0  0  0  0  0  0  0  0
   -1.3902   -0.1415   -0.0044 C   0  0  0  0  0  0  0  0  0  0  0  0
   -2.5313    0.8591   -0.0745 C   0  0  0  0  0  0  0  0  0  0  0  0
   -3.7089    0.6312    0.8386 C   0  0  0  0  0  0  0  0  0  0  0  0
   -2.5130    1.7979   -0.8712 O   0  0  0  0  0  0  0  0  0  0  0  0
   -1.8226   -1.4159   -0.7156 C   0  0  0  0  0  0  0  0  0  0  0  0
   -1.7183   -1.4916   -2.2178 C   0  0  0  0  0  0  0  0  0  0  0  0
   -2.3474   -2.3280   -0.0717 O   0  0  0  0  0  0  0  0  0  0  0  0
    1.0972   -0.4411   -0.2823 C   0  0  0  0  0  0  0  0  0  0  0  0
    1.0910   -1.6461   -0.4792 O   0  0  0  0  0  0  0  0  0  0  0  0
  1  2  1  0
  2  3  1  0
  3  4  1  0
  4  5  2  0
  4  6  1  0
  6  7  1  0
  7  8  1  1
  8  9  1  0
  9 10  1  0
  9 11  2  0
  8 12  1  0
 12 13  1  0
 12 14  2  0
  7 15  1  0
 15 16  2  0
 15  3  1  0
M  END
