
     RDKit          3D

 23 23  0  0  0  0  0  0  0  0999 V2000
    6.4892    0.6688    1.2431 C   0  0  0  0  0  0  0  0  0  0  0  0
    5.5435   -0.1721    0.3989 C   0  0  0  0  0  0  0  0  0  0  0  0
    4.4697    0.6916   -0.2632 C   0  0  0  0  0  0  0  0  0  0  0  0
    3.5648   -0.0871   -1.2230 C   0  0  0  0  0  0  0  0  0  0  0  0
    2.7682   -1.2393   -0.6007 C   0  0  0  0  0  0  0  0  0  0  0  0
    1.7821   -0.8237    0.4953 C   0  0  0  0  0  0  0  0  0  0  0  0
    0.7147    0.0258   -0.0049 N   0  0  0  0  0  0  0  0  0  0  0  0
    0.5710    1.3392    0.3327 C   0  0  0  0  0  0  0  0  0  0  0  0
    1.3305    2.0109    1.0131 O   0  0  0  0  0  0  0  0  0  0  0  0
   -0.7227    1.8434   -0.2342 C   0  0  0  0  0  0  0  0  0  0  0  0
   -1.1987    0.7211   -1.1580 C   0  0  2  0  0  0  0  0  0  0  0  0
   -2.6884    0.3477   -1.1249 C   0  0  2  0  0  0  0  0  0  0  0  0
   -2.9016   -0.4596   -2.2227 F   0  0  0  0  0  0  0  0  0  0  0  0
   -3.5948    1.5703   -1.2771 C   0  0  0  0  0  0  0  0  0  0  0  0
   -5.0827    1.3162   -1.3013 C   0  0  0  0  0  0  0  0  0  0  0  0
   -3.1607    2.7175   -1.3983 O   0  0  0  0  0  0  0  0  0  0  0  0
   -3.0401   -0.3881    0.1665 C   0  0  0  0  0  0  0  0  0  0  0  0
   -2.6739   -0.0322    1.2803 O   0  0  0  0  0  0  0  0  0  0  0  0
   -3.8497   -1.4548   -0.0798 O   0  0  0  0  0  0  0  0  0  0  0  0
   -4.2129   -2.2525    1.0571 C   0  0  0  0  0  0  0  0  0  0  0  0
   -5.4561   -1.6846    1.7152 C   0  0  0  0  0  0  0  0  0  0  0  0
   -0.3395   -0.4417   -0.7337 C   0  0  0  0  0  0  0  0  0  0  0  0
   -0.5589   -1.6089   -1.0190 O   0  0  0  0  0  0  0  0  0  0  0  0
  1  2  1  0
  2  3  1  0
  3  4  1  0
  4  5  1  0
  5  6  1  0
  6  7  1  0
  7  8  1  0
  8  9  2  0
  8 10  1  0
 11 10  1  1
 11 12  1  0
 12 13  1  6
 12 14  1  0
 14 15  1  0
 14 16  2  0
 12 17  1  0
 17 18  2  0
 17 19  1  0
 19 20  1  0
 20 21  1  0
 11 22  1  0
 22 23  2  0
 22  7  1  0
M  END
