
     RDKit          3D

 27 28  0  0  0  0  0  0  0  0999 V2000
   -0.4613    2.7199    2.5861 C   0  0  0  0  0  0  0  0  0  0  0  0
   -0.2311    1.3667    3.2413 C   0  0  0  0  0  0  0  0  0  0  0  0
   -1.1642    0.3021    2.6606 C   0  0  0  0  0  0  0  0  0  0  0  0
   -0.8960   -1.1015    3.2181 C   0  0  0  0  0  0  0  0  0  0  0  0
   -0.0779   -2.0322    2.2892 C   0  0  2  0  0  0  0  0  0  0  0  0
   -0.1024   -3.4859    2.8106 C   0  0  0  0  0  0  0  0  0  0  0  0
    0.5887   -3.7091    4.1493 C   0  0  0  0  0  0  0  0  0  0  0  0
    1.3673   -1.5551    2.0694 C   0  0  0  0  0  0  0  0  0  0  0  0
    1.4074   -0.4505    1.1512 O   0  0  0  0  0  0  0  0  0  0  0  0
    1.5152   -0.7736   -0.1640 C   0  0  0  0  0  0  0  0  0  0  0  0
    1.6030   -1.9001   -0.6257 O   0  0  0  0  0  0  0  0  0  0  0  0
    1.5223    0.4707   -0.9664 C   0  0  0  0  0  0  0  0  0  0  0  0
    2.5292    1.4159   -0.6179 C   0  0  0  0  0  0  0  0  0  0  0  0
    3.3585    2.1767   -0.3321 N   0  0  0  0  0  0  0  0  0  0  0  0
    0.6191    0.6730   -1.9577 C   0  0  0  0  0  0  0  0  0  0  0  0
   -0.4522   -0.3194   -2.2162 C   0  0  0  0  0  0  0  0  0  0  0  0
   -0.2862   -1.2961   -3.2059 C   0  0  0  0  0  0  0  0  0  0  0  0
   -1.2969   -2.2277   -3.4502 C   0  0  0  0  0  0  0  0  0  0  0  0
   -2.4787   -2.1863   -2.7119 C   0  0  0  0  0  0  0  0  0  0  0  0
   -2.6542   -1.2127   -1.7297 C   0  0  0  0  0  0  0  0  0  0  0  0
   -1.6462   -0.2793   -1.4837 C   0  0  0  0  0  0  0  0  0  0  0  0
    0.6884    1.9206   -2.7595 C   0  0  0  0  0  0  0  0  0  0  0  0
   -0.1894    2.9796   -2.4934 C   0  0  0  0  0  0  0  0  0  0  0  0
   -0.1209    4.1539   -3.2451 C   0  0  0  0  0  0  0  0  0  0  0  0
    0.8238    4.2775   -4.2638 C   0  0  0  0  0  0  0  0  0  0  0  0
    1.6975    3.2263   -4.5376 C   0  0  0  0  0  0  0  0  0  0  0  0
    1.6295    2.0489   -3.7906 C   0  0  0  0  0  0  0  0  0  0  0  0
  1  2  1  0
  2  3  1  0
  3  4  1  0
  5  4  1  1
  5  6  1  0
  6  7  1  0
  5  8  1  0
  8  9  1  0
  9 10  1  0
 10 11  2  0
 10 12  1  0
 12 13  1  0
 13 14  3  0
 12 15  2  3
 15 16  1  0
 16 17  2  0
 17 18  1  0
 18 19  2  0
 19 20  1  0
 20 21  2  0
 15 22  1  0
 22 23  2  0
 23 24  1  0
 24 25  2  0
 25 26  1  0
 26 27  2  0
 21 16  1  0
 27 22  1  0
M  END
