
     RDKit          3D

 27 28  0  0  0  0  0  0  0  0999 V2000
    0.1132    4.1925   -3.4456 C   0  0  0  0  0  0  0  0  0  0  0  0
   -1.2638    3.6126   -3.7355 C   0  0  0  0  0  0  0  0  0  0  0  0
   -1.2233    2.2985   -4.5196 C   0  0  0  0  0  0  0  0  0  0  0  0
   -0.4617    1.1501   -3.8517 C   0  0  0  0  0  0  0  0  0  0  0  0
   -0.9409    0.7528   -2.4410 C   0  0  1  0  0  0  0  0  0  0  0  0
   -2.4443    0.4049   -2.3594 C   0  0  0  0  0  0  0  0  0  0  0  0
   -2.8866   -0.7695   -3.2227 C   0  0  0  0  0  0  0  0  0  0  0  0
   -0.0530   -0.3852   -1.9067 C   0  0  0  0  0  0  0  0  0  0  0  0
   -0.4102   -0.6634   -0.5458 O   0  0  0  0  0  0  0  0  0  0  0  0
    0.0950   -1.8258   -0.0588 C   0  0  0  0  0  0  0  0  0  0  0  0
    0.7626   -2.6478   -0.6663 O   0  0  0  0  0  0  0  0  0  0  0  0
   -0.3000   -1.9643    1.3549 C   0  0  0  0  0  0  0  0  0  0  0  0
   -1.5591   -2.5877    1.5684 C   0  0  0  0  0  0  0  0  0  0  0  0
   -2.5942   -3.0905    1.7323 N   0  0  0  0  0  0  0  0  0  0  0  0
    0.5189   -1.5195    2.3388 C   0  0  0  0  0  0  0  0  0  0  0  0
    1.7951   -0.8528    1.9771 C   0  0  0  0  0  0  0  0  0  0  0  0
    2.9811   -1.5955    1.9314 C   0  0  0  0  0  0  0  0  0  0  0  0
    4.1827   -0.9783    1.5798 C   0  0  0  0  0  0  0  0  0  0  0  0
    4.2068    0.3825    1.2759 C   0  0  0  0  0  0  0  0  0  0  0  0
    3.0305    1.1288    1.3225 C   0  0  0  0  0  0  0  0  0  0  0  0
    1.8265    0.5145    1.6703 C   0  0  0  0  0  0  0  0  0  0  0  0
    0.1436   -1.7112    3.7638 C   0  0  0  0  0  0  0  0  0  0  0  0
    0.1036   -2.9953    4.3292 C   0  0  0  0  0  0  0  0  0  0  0  0
   -0.2328   -3.1665    5.6735 C   0  0  0  0  0  0  0  0  0  0  0  0
   -0.5247   -2.0570    6.4661 C   0  0  0  0  0  0  0  0  0  0  0  0
   -0.4765   -0.7761    5.9165 C   0  0  0  0  0  0  0  0  0  0  0  0
   -0.1408   -0.6015    4.5719 C   0  0  0  0  0  0  0  0  0  0  0  0
  1  2  1  0
  2  3  1  0
  3  4  1  0
  5  4  1  6
  5  6  1  0
  6  7  1  0
  5  8  1  0
  8  9  1  0
  9 10  1  0
 10 11  2  0
 10 12  1  0
 12 13  1  0
 13 14  3  0
 12 15  2  3
 15 16  1  0
 16 17  2  0
 17 18  1  0
 18 19  2  0
 19 20  1  0
 20 21  2  0
 15 22  1  0
 22 23  2  0
 23 24  1  0
 24 25  2  0
 25 26  1  0
 26 27  2  0
 21 16  1  0
 27 22  1  0
M  END
