
     RDKit          3D

 23 24  0  0  0  0  0  0  0  0999 V2000
    5.3233    0.0713    1.9605 F   0  0  0  0  0  0  0  0  0  0  0  0
    4.5925   -0.1890    0.8448 C   0  0  0  0  0  0  0  0  0  0  0  0
    4.6842    0.9216    0.0604 F   0  0  0  0  0  0  0  0  0  0  0  0
    3.1314   -0.4967    1.1899 C   0  0  0  0  0  0  0  0  0  0  0  0
    3.0594   -1.6033    1.9736 F   0  0  0  0  0  0  0  0  0  0  0  0
    2.5574    0.5139    1.8868 F   0  0  0  0  0  0  0  0  0  0  0  0
    2.3454   -0.7801    0.0287 O   0  0  0  0  0  0  0  0  0  0  0  0
    1.6708    0.3589   -0.5049 C   0  0  0  0  0  0  0  0  0  0  0  0
    0.2447    0.4978    0.0765 C   0  0  1  0  0  0  0  0  0  0  0  0
   -0.4218    1.7707   -0.4777 C   0  0  0  0  0  0  0  0  0  0  0  0
   -1.6300    2.1280    0.2349 N   0  0  0  0  0  0  0  0  0  0  0  0
   -2.9167    1.8478   -0.1007 C   0  0  0  0  0  0  0  0  0  0  0  0
   -3.7239    2.3623    0.7980 N   0  0  0  0  0  0  0  0  0  0  0  0
   -2.8637    2.9595    1.6758 C   0  0  0  0  0  0  0  0  0  0  0  0
   -1.5691    2.8551    1.3631 N   0  0  0  0  0  0  0  0  0  0  0  0
   -0.6001   -0.7525   -0.1937 C   0  0  0  0  0  0  0  0  0  0  0  0
   -0.8446   -1.1583   -1.5220 C   0  0  0  0  0  0  0  0  0  0  0  0
   -1.6188   -2.2871   -1.8012 C   0  0  0  0  0  0  0  0  0  0  0  0
   -2.1613   -3.0295   -0.7584 C   0  0  0  0  0  0  0  0  0  0  0  0
   -3.1142   -4.4184   -1.1058 Cl  0  0  0  0  0  0  0  0  0  0  0  0
   -1.9369   -2.6547    0.5609 C   0  0  0  0  0  0  0  0  0  0  0  0
   -1.1612   -1.5253    0.8441 C   0  0  0  0  0  0  0  0  0  0  0  0
   -0.9423   -1.1388    2.5142 Cl  0  0  0  0  0  0  0  0  0  0  0  0
  1  2  1  0
  2  3  1  0
  2  4  1  0
  4  5  1  0
  4  6  1  0
  4  7  1  0
  7  8  1  0
  9  8  1  6
  9 10  1  0
 10 11  1  0
 11 12  1  0
 12 13  2  0
 13 14  1  0
 14 15  2  0
  9 16  1  0
 16 17  2  0
 17 18  1  0
 18 19  2  0
 19 20  1  0
 19 21  1  0
 21 22  2  0
 22 23  1  0
 15 11  1  0
 22 16  1  0
M  END
