
     RDKit          3D

 25 27  0  0  0  0  0  0  0  0999 V2000
   -5.5031   -0.1293   -3.2221 C   0  0  0  0  0  0  0  0  0  0  0  0
   -5.1091    0.4502   -1.8912 C   0  0  0  0  0  0  0  0  0  0  0  0
   -3.9002    0.2042   -1.3518 C   0  0  0  0  0  0  0  0  0  0  0  0
   -3.3781    0.7086   -0.0734 C   0  0  2  0  0  0  0  0  0  0  0  0
   -2.3402   -0.1131    0.6650 C   0  0  2  0  0  0  0  0  0  0  0  0
   -3.7433    0.0318    1.2405 C   0  0  0  0  0  0  0  0  0  0  0  0
   -3.9812    0.9280    2.4325 C   0  0  0  0  0  0  0  0  0  0  0  0
   -4.6048   -1.2104    1.2544 C   0  0  0  0  0  0  0  0  0  0  0  0
   -1.1587    0.5467    1.2774 C   0  0  0  0  0  0  0  0  0  0  0  0
   -1.0889    1.7515    1.4685 O   0  0  0  0  0  0  0  0  0  0  0  0
   -0.2025   -0.3669    1.5838 O   0  0  0  0  0  0  0  0  0  0  0  0
    1.0046    0.1805    2.1314 C   0  0  0  0  0  0  0  0  0  0  0  0
    1.9646    0.5720    1.0641 C   0  0  0  0  0  0  0  0  0  0  0  0
    2.1864    1.8431    0.5758 C   0  0  0  0  0  0  0  0  0  0  0  0
    3.1298    1.8313   -0.3976 O   0  0  0  0  0  0  0  0  0  0  0  0
    3.5273    0.5367   -0.5541 C   0  0  0  0  0  0  0  0  0  0  0  0
    2.8341   -0.2747    0.3206 C   0  0  0  0  0  0  0  0  0  0  0  0
    4.5588    0.2847   -1.5966 C   0  0  0  0  0  0  0  0  0  0  0  0
    5.7443   -0.5038   -1.0872 C   0  0  0  0  0  0  0  0  0  0  0  0
    5.9531   -1.8288   -1.4969 C   0  0  0  0  0  0  0  0  0  0  0  0
    7.0510   -2.5500   -1.0250 C   0  0  0  0  0  0  0  0  0  0  0  0
    7.9475   -1.9577   -0.1372 C   0  0  0  0  0  0  0  0  0  0  0  0
    7.7482   -0.6427    0.2802 C   0  0  0  0  0  0  0  0  0  0  0  0
    6.6529    0.0812   -0.1919 C   0  0  0  0  0  0  0  0  0  0  0  0
   -6.1556    1.3107   -1.2399 C   0  0  0  0  0  0  0  0  0  0  0  0
  1  2  1  0
  2  3  2  3
  4  3  1  6
  4  5  1  0
  5  6  1  0
  6  7  1  0
  6  8  1  0
  5  9  1  1
  9 10  2  0
  9 11  1  0
 11 12  1  0
 12 13  1  0
 13 14  2  0
 14 15  1  0
 15 16  1  0
 16 17  2  0
 16 18  1  0
 18 19  1  0
 19 20  2  0
 20 21  1  0
 21 22  2  0
 22 23  1  0
 23 24  2  0
  2 25  1  0
  6  4  1  0
 17 13  1  0
 24 19  1  0
M  END
