
     RDKit          3D

 21 22  0  0  0  0  0  0  0  0999 V2000
   -4.0755    0.7996    0.0836 C   0  0  0  0  0  0  0  0  0  0  0  0
   -2.5411    1.0114    0.1922 C   0  0  0  0  0  0  0  0  0  0  0  0
   -2.2788    1.4981    1.6322 C   0  0  0  0  0  0  0  0  0  0  0  0
   -2.1607    2.1180   -0.8067 C   0  0  0  0  0  0  0  0  0  0  0  0
   -1.8138   -0.3478   -0.1055 C   0  0  1  0  0  0  0  0  0  0  0  0
   -2.4211   -0.9429   -1.2777 O   0  0  0  0  0  0  0  0  0  0  0  0
   -0.2725   -0.3980   -0.3394 C   0  0  1  0  0  0  0  0  0  0  0  0
    0.6159    0.4130    0.6238 C   0  0  0  0  0  0  0  0  0  0  0  0
    2.1080    0.3302    0.3352 C   0  0  0  0  0  0  0  0  0  0  0  0
    2.9059   -0.4918    1.1509 C   0  0  0  0  0  0  0  0  0  0  0  0
    4.2778   -0.6137    0.9225 C   0  0  0  0  0  0  0  0  0  0  0  0
    4.8689    0.0885   -0.1226 C   0  0  0  0  0  0  0  0  0  0  0  0
    6.5597   -0.0593   -0.4031 Cl  0  0  0  0  0  0  0  0  0  0  0  0
    4.1018    0.9102   -0.9427 C   0  0  0  0  0  0  0  0  0  0  0  0
    2.7281    1.0300   -0.7153 C   0  0  0  0  0  0  0  0  0  0  0  0
    1.8374    2.0690   -1.7699 Cl  0  0  0  0  0  0  0  0  0  0  0  0
    0.1422   -1.8111   -0.3276 N   0  0  0  0  0  0  0  0  0  0  0  0
    0.5458   -2.5674   -1.3851 C   0  0  0  0  0  0  0  0  0  0  0  0
    0.8680   -3.7700   -0.9680 N   0  0  0  0  0  0  0  0  0  0  0  0
    0.6262   -3.7039    0.3740 C   0  0  0  0  0  0  0  0  0  0  0  0
    0.1940   -2.5210    0.8205 N   0  0  0  0  0  0  0  0  0  0  0  0
  1  2  1  0
  2  3  1  0
  2  4  1  0
  2  5  1  0
  5  6  1  6
  5  7  1  0
  7  8  1  1
  8  9  1  0
  9 10  2  0
 10 11  1  0
 11 12  2  0
 12 13  1  0
 12 14  1  0
 14 15  2  0
 15 16  1  0
  7 17  1  0
 17 18  1  0
 18 19  2  0
 19 20  1  0
 20 21  2  0
 15  9  1  0
 21 17  1  0
M  END
