
     RDKit          3D

 26 28  0  0  0  0  0  0  0  0999 V2000
    3.9151   -1.5513   -1.1375 C   0  0  0  0  0  0  0  0  0  0  0  0
    4.4943   -0.6830   -0.0438 C   0  0  0  0  0  0  0  0  0  0  0  0
    4.9725   -1.4750    1.1502 C   0  0  0  0  0  0  0  0  0  0  0  0
    5.2072    0.5910   -0.4746 C   0  0  2  0  0  0  0  0  0  0  0  0
    6.4342    1.0275    0.2134 C   0  0  0  0  0  0  0  0  0  0  0  0
    6.7626    2.2673    0.6091 C   0  0  0  0  0  0  0  0  0  0  0  0
    5.7218    3.6216    0.3682 Cl  0  0  0  0  0  0  0  0  0  0  0  0
    8.2715    2.5541    1.4012 Cl  0  0  0  0  0  0  0  0  0  0  0  0
    3.8714    0.6773    0.2408 C   0  0  1  0  0  0  0  0  0  0  0  0
    2.6635    1.1291   -0.4897 C   0  0  0  0  0  0  0  0  0  0  0  0
    2.7181    1.8300   -1.4888 O   0  0  0  0  0  0  0  0  0  0  0  0
    1.5375    0.6481    0.0923 O   0  0  0  0  0  0  0  0  0  0  0  0
    0.3396    1.0239   -0.5932 C   0  0  0  0  0  0  0  0  0  0  0  0
   -0.8505    0.3457    0.0447 C   0  0  0  0  0  0  0  0  0  0  0  0
   -0.7698   -0.9725    0.5214 C   0  0  0  0  0  0  0  0  0  0  0  0
   -1.8863   -1.5994    1.0795 C   0  0  0  0  0  0  0  0  0  0  0  0
   -3.1045   -0.9248    1.1490 C   0  0  0  0  0  0  0  0  0  0  0  0
   -3.2057    0.3738    0.6457 C   0  0  0  0  0  0  0  0  0  0  0  0
   -4.3722    1.1042    0.7021 O   0  0  0  0  0  0  0  0  0  0  0  0
   -5.5272    0.4799    0.2864 C   0  0  0  0  0  0  0  0  0  0  0  0
   -6.6576    0.6368    1.0907 C   0  0  0  0  0  0  0  0  0  0  0  0
   -7.8677    0.0562    0.7095 C   0  0  0  0  0  0  0  0  0  0  0  0
   -7.9494   -0.6690   -0.4804 C   0  0  0  0  0  0  0  0  0  0  0  0
   -6.8238   -0.8093   -1.2936 C   0  0  0  0  0  0  0  0  0  0  0  0
   -5.6125   -0.2277   -0.9159 C   0  0  0  0  0  0  0  0  0  0  0  0
   -2.0839    1.0118    0.1119 C   0  0  0  0  0  0  0  0  0  0  0  0
  1  2  1  0
  2  3  1  0
  2  4  1  0
  4  5  1  1
  5  6  2  3
  6  7  1  0
  6  8  1  0
  4  9  1  0
  9 10  1  6
 10 11  2  0
 10 12  1  0
 12 13  1  0
 13 14  1  0
 14 15  2  0
 15 16  1  0
 16 17  2  0
 17 18  1  0
 18 19  1  0
 19 20  1  0
 20 21  2  0
 21 22  1  0
 22 23  2  0
 23 24  1  0
 24 25  2  0
 18 26  2  0
  9  2  1  0
 26 14  1  0
 25 20  1  0
M  END
