
     RDKit          3D

  9  9  0  0  0  0  0  0  0  0999 V2000
    1.2438   -1.3691    0.6454 C   0  0  0  0  0  0  0  0  0  0  0  0
    0.7433   -0.3338   -0.3490 C   0  0  2  0  0  0  0  0  0  0  0  0
    1.5070    0.9765   -0.2880 C   0  0  0  0  0  0  0  0  0  0  0  0
    0.5166    1.9395   -0.8715 C   0  0  0  0  0  0  0  0  0  0  0  0
    0.7749    3.0598   -1.2793 O   0  0  0  0  0  0  0  0  0  0  0  0
   -0.7364    1.3947   -0.8587 O   0  0  0  0  0  0  0  0  0  0  0  0
   -0.7083    0.1237   -0.1848 C   0  0  0  0  0  0  0  0  0  0  0  0
   -1.6843   -0.8148   -0.8935 C   0  0  0  0  0  0  0  0  0  0  0  0
   -1.1588    0.3477    1.2630 C   0  0  0  0  0  0  0  0  0  0  0  0
  2  1  1  1
  2  3  1  0
  3  4  1  0
  4  5  2  0
  4  6  1  0
  6  7  1  0
  7  8  1  0
  7  9  1  0
  7  2  1  0
M  END
