
     RDKit          3D

  9  8  0  0  0  0  0  0  0  0999 V2000
    0.0757   -1.6719   -0.7344 C   0  0  0  0  0  0  0  0  0  0  0  0
   -0.6013   -0.3106   -0.5830 C   0  0  2  0  0  0  0  0  0  0  0  0
    0.3544    0.8558   -0.8229 C   0  0  0  0  0  0  0  0  0  0  0  0
    1.4846    0.8938    0.1666 C   0  0  0  0  0  0  0  0  0  0  0  0
    2.5824    0.3839    0.0227 O   0  0  0  0  0  0  0  0  0  0  0  0
    1.1687    1.5511    1.2963 O   0  0  0  0  0  0  0  0  0  0  0  0
   -1.2649   -0.1855    0.7693 C   0  0  0  0  0  0  0  0  0  0  0  0
   -1.0724   -0.8808    1.7517 O   0  0  0  0  0  0  0  0  0  0  0  0
   -2.1552    0.8252    0.8086 O   0  0  0  0  0  0  0  0  0  0  0  0
  2  1  1  1
  2  3  1  0
  3  4  1  0
  4  5  2  0
  4  6  1  0
  2  7  1  0
  7  8  2  0
  7  9  1  0
M  END
