
     RDKit          3D

 13 14  0  0  0  0  0  0  0  0999 V2000
    3.8325   -0.2593    0.8435 C   0  0  0  0  0  0  0  0  0  0  0  0
    3.0760    0.1319   -0.2842 O   0  0  0  0  0  0  0  0  0  0  0  0
    1.6820   -0.6378   -0.5766 P   0  0  2  0  0  5  0  0  0  0  0  0
    1.8038   -2.5401   -0.9289 S   0  0  0  0  0  0  0  0  0  0  0  0
    1.0811    0.2750   -1.7661 O   0  0  0  0  0  0  0  0  0  0  0  0
   -0.3016    0.1137   -2.0165 C   0  0  0  0  0  0  0  0  0  0  0  0
   -1.1217    0.2416   -0.7629 C   0  0  0  0  0  0  0  0  0  0  0  0
   -2.4987    0.4919   -0.8573 C   0  0  0  0  0  0  0  0  0  0  0  0
   -3.2814    0.6024    0.2941 C   0  0  0  0  0  0  0  0  0  0  0  0
   -2.6984    0.4593    1.5517 C   0  0  0  0  0  0  0  0  0  0  0  0
   -1.3338    0.1993    1.6589 C   0  0  0  0  0  0  0  0  0  0  0  0
   -0.5586    0.0812    0.5065 C   0  0  0  0  0  0  0  0  0  0  0  0
    0.7725   -0.1745    0.6773 O   0  0  0  0  0  0  0  0  0  0  0  0
  1  2  1  0
  3  2  1  1
  3  4  2  0
  3  5  1  0
  5  6  1  0
  6  7  1  0
  7  8  2  0
  8  9  1  0
  9 10  2  0
 10 11  1  0
 11 12  2  0
 12 13  1  0
 13  3  1  0
 12  7  1  0
M  END
