
     RDKit          3D

 13 14  0  0  0  0  0  0  0  0999 V2000
    3.9331    0.6802   -0.9492 C   0  0  0  0  0  0  0  0  0  0  0  0
    2.7390   -0.0025   -1.2734 O   0  0  0  0  0  0  0  0  0  0  0  0
    1.3279    0.7208   -0.9467 P   0  0  2  0  0  5  0  0  0  0  0  0
    0.9915    2.4050   -1.8458 S   0  0  0  0  0  0  0  0  0  0  0  0
    1.3487    0.7504    0.6691 O   0  0  0  0  0  0  0  0  0  0  0  0
    0.0931    0.9638    1.2867 C   0  0  0  0  0  0  0  0  0  0  0  0
   -0.9568    0.0182    0.7748 C   0  0  0  0  0  0  0  0  0  0  0  0
   -2.1275   -0.1891    1.5193 C   0  0  0  0  0  0  0  0  0  0  0  0
   -3.1212   -1.0536    1.0547 C   0  0  0  0  0  0  0  0  0  0  0  0
   -2.9588   -1.7163   -0.1604 C   0  0  0  0  0  0  0  0  0  0  0  0
   -1.8056   -1.5102   -0.9147 C   0  0  0  0  0  0  0  0  0  0  0  0
   -0.8208   -0.6398   -0.4510 C   0  0  0  0  0  0  0  0  0  0  0  0
    0.2858   -0.4801   -1.2359 O   0  0  0  0  0  0  0  0  0  0  0  0
  1  2  1  0
  3  2  1  6
  3  4  2  0
  3  5  1  0
  5  6  1  0
  6  7  1  0
  7  8  2  0
  8  9  1  0
  9 10  2  0
 10 11  1  0
 11 12  2  0
 12 13  1  0
 13  3  1  0
 12  7  1  0
M  END
