
     RDKit          3D

 27 29  0  0  0  0  0  0  0  0999 V2000
    2.1932   -2.3068    0.5824 C   0  0  0  0  0  0  0  0  0  0  0  0
    2.4604   -1.1487   -0.4016 C   0  0  2  0  0  0  0  0  0  0  0  0
    2.8758   -1.6996   -1.6687 O   0  0  0  0  0  0  0  0  0  0  0  0
    3.7386   -0.3861    0.0803 C   0  0  0  0  0  0  0  0  0  0  0  0
    3.8254   -0.0910    1.4924 N   0  0  0  0  0  0  0  0  0  0  0  0
    4.6736   -0.6500    2.4004 C   0  0  0  0  0  0  0  0  0  0  0  0
    4.4674   -0.1173    3.5821 N   0  0  0  0  0  0  0  0  0  0  0  0
    3.4803    0.7927    3.3389 C   0  0  0  0  0  0  0  0  0  0  0  0
    3.0592    0.8488    2.0729 N   0  0  0  0  0  0  0  0  0  0  0  0
    1.1952   -0.3091   -0.7026 C   0  0  0  0  0  0  0  0  0  0  0  0
    1.2234    1.0933   -0.5124 C   0  0  0  0  0  0  0  0  0  0  0  0
    0.1162    1.9150   -0.7486 C   0  0  0  0  0  0  0  0  0  0  0  0
   -1.0741    1.3613   -1.1781 C   0  0  0  0  0  0  0  0  0  0  0  0
   -2.1265    2.2117   -1.4140 O   0  0  0  0  0  0  0  0  0  0  0  0
   -3.3431    1.8697   -0.8679 C   0  0  0  0  0  0  0  0  0  0  0  0
   -4.4638    2.0002   -1.6899 C   0  0  0  0  0  0  0  0  0  0  0  0
   -5.7322    1.6989   -1.1899 C   0  0  0  0  0  0  0  0  0  0  0  0
   -5.8730    1.2840    0.1342 C   0  0  0  0  0  0  0  0  0  0  0  0
   -7.4359    0.9130    0.7506 Cl  0  0  0  0  0  0  0  0  0  0  0  0
   -4.7578    1.1745    0.9649 C   0  0  0  0  0  0  0  0  0  0  0  0
   -3.4885    1.4757    0.4658 C   0  0  0  0  0  0  0  0  0  0  0  0
   -1.1407   -0.0051   -1.4253 C   0  0  0  0  0  0  0  0  0  0  0  0
   -0.0254   -0.8555   -1.2078 C   0  0  0  0  0  0  0  0  0  0  0  0
   -0.2719   -2.3187   -1.5216 C   0  0  0  0  0  0  0  0  0  0  0  0
   -0.6813   -3.0169   -0.4267 F   0  0  0  0  0  0  0  0  0  0  0  0
   -1.2418   -2.5145   -2.4613 F   0  0  0  0  0  0  0  0  0  0  0  0
    0.8174   -2.9818   -2.0036 F   0  0  0  0  0  0  0  0  0  0  0  0
  2  1  1  1
  2  3  1  0
  2  4  1  0
  4  5  1  0
  5  6  1  0
  6  7  2  0
  7  8  1  0
  8  9  2  0
  2 10  1  0
 10 11  2  0
 11 12  1  0
 12 13  2  0
 13 14  1  0
 14 15  1  0
 15 16  2  0
 16 17  1  0
 17 18  2  0
 18 19  1  0
 18 20  1  0
 20 21  2  0
 13 22  1  0
 22 23  2  0
 23 24  1  0
 24 25  1  0
 24 26  1  0
 24 27  1  0
  9  5  1  0
 23 10  1  0
 21 15  1  0
M  END
