
     RDKit          3D

 12 13  0  0  0  0  0  0  0  0999 V2000
   -0.9026    2.5566   -0.4131 O   0  0  0  0  0  0  0  0  0  0  0  0
   -0.9113    1.3461    0.3416 C   0  0  1  0  0  0  0  0  0  0  0  0
   -2.1666    0.5656   -0.0532 C   0  0  0  0  0  0  0  0  0  0  0  0
   -2.1128   -0.8547    0.4881 C   0  0  0  0  0  0  0  0  0  0  0  0
   -0.9343   -1.6061   -0.1266 C   0  0  0  0  0  0  0  0  0  0  0  0
    0.3586   -0.8279   -0.0676 C   0  0  0  0  0  0  0  0  0  0  0  0
    1.5700   -1.5130   -0.2534 C   0  0  0  0  0  0  0  0  0  0  0  0
    2.7865   -0.8310   -0.2189 C   0  0  0  0  0  0  0  0  0  0  0  0
    2.7989    0.5424    0.0002 C   0  0  0  0  0  0  0  0  0  0  0  0
    4.4460    1.4681    0.0615 Br  0  0  0  0  0  0  0  0  0  0  0  0
    1.6055    1.2405    0.1747 C   0  0  0  0  0  0  0  0  0  0  0  0
    0.3710    0.5683    0.1228 C   0  0  0  0  0  0  0  0  0  0  0  0
  2  1  1  6
  2  3  1  0
  3  4  1  0
  4  5  1  0
  5  6  1  0
  6  7  2  0
  7  8  1  0
  8  9  2  0
  9 10  1  0
  9 11  1  0
 11 12  2  0
 12  2  1  0
 12  6  1  0
M  END
