
     RDKit          3D

 19 20  0  0  0  0  0  0  0  0999 V2000
   -0.2103   -1.7859    1.7898 O   0  0  0  0  0  0  0  0  0  0  0  0
   -0.9402   -1.0828    1.1063 C   0  0  0  0  0  0  0  0  0  0  0  0
   -2.4573   -1.1563    1.1579 C   0  0  2  0  0  0  0  0  0  0  0  0
   -2.9675   -2.5790    0.2176 Cl  0  0  0  0  0  0  0  0  0  0  0  0
   -2.8767    0.1821    0.5534 C   0  0  2  0  0  0  0  0  0  0  0  0
   -4.2809    0.2303   -0.0285 C   0  0  0  0  0  0  0  0  0  0  0  0
   -4.6899    1.8841   -0.5535 Cl  0  0  0  0  0  0  0  0  0  0  0  0
   -1.7743    0.4557   -0.4604 C   0  0  0  0  0  0  0  0  0  0  0  0
   -0.5895   -0.1255    0.1347 N   0  0  0  0  0  0  0  0  0  0  0  0
    0.7241    0.1767   -0.3212 C   0  0  0  0  0  0  0  0  0  0  0  0
    0.9202    1.0113   -1.4330 C   0  0  0  0  0  0  0  0  0  0  0  0
    2.2033    1.3181   -1.8974 C   0  0  0  0  0  0  0  0  0  0  0  0
    3.3218    0.7971   -1.2558 C   0  0  0  0  0  0  0  0  0  0  0  0
    3.1650   -0.0321   -0.1403 C   0  0  0  0  0  0  0  0  0  0  0  0
    4.3622   -0.6205    0.5654 C   0  0  0  0  0  0  0  0  0  0  0  0
    5.5362   -0.0137    0.2294 F   0  0  0  0  0  0  0  0  0  0  0  0
    4.5348   -1.9414    0.2860 F   0  0  0  0  0  0  0  0  0  0  0  0
    4.2766   -0.5284    1.9214 F   0  0  0  0  0  0  0  0  0  0  0  0
    1.8649   -0.3372    0.3105 C   0  0  0  0  0  0  0  0  0  0  0  0
  1  2  2  0
  2  3  1  0
  3  4  1  6
  3  5  1  0
  5  6  1  6
  6  7  1  0
  5  8  1  0
  8  9  1  0
  9 10  1  0
 10 11  2  0
 11 12  1  0
 12 13  2  0
 13 14  1  0
 14 15  1  0
 15 16  1  0
 15 17  1  0
 15 18  1  0
 14 19  2  0
  9  2  1  0
 19 10  1  0
M  END
