
     RDKit          3D

  8  8  0  0  0  0  0  0  0  0999 V2000
    1.9531   -0.3638    0.3092 C   0  0  0  0  0  0  0  0  0  0  0  0
    0.9408    0.2865   -0.6387 C   0  0  1  0  0  0  0  0  0  0  0  0
   -0.0876   -0.7288   -1.1618 C   0  0  0  0  0  0  0  0  0  0  0  0
   -1.0728   -1.1816   -0.0846 C   0  0  0  0  0  0  0  0  0  0  0  0
   -1.7839   -0.0028    0.5639 C   0  0  0  0  0  0  0  0  0  0  0  0
   -0.7857    1.0290    1.0354 C   0  0  0  0  0  0  0  0  0  0  0  0
   -0.8705    1.5484    2.1472 O   0  0  0  0  0  0  0  0  0  0  0  0
    0.2479    1.4793    0.0258 C   0  0  0  0  0  0  0  0  0  0  0  0
  2  1  1  1
  2  3  1  0
  3  4  1  0
  4  5  1  0
  5  6  1  0
  6  7  2  0
  6  8  1  0
  8  2  1  0
M  END
