
     RDKit          3D

 21 21  0  0  0  0  0  0  0  0999 V2000
   -3.6456    3.5858   -0.1693 C   0  0  0  0  0  0  0  0  0  0  0  0
   -2.5707    2.6148   -0.6238 C   0  0  0  0  0  0  0  0  0  0  0  0
   -2.9423    1.1707   -0.3125 C   0  0  0  0  0  0  0  0  0  0  0  0
   -1.9247    0.3253   -0.8144 O   0  0  0  0  0  0  0  0  0  0  0  0
   -1.4791   -1.0440   -0.0666 P   0  0  0  0  0  5  0  0  0  0  0  0
   -1.3465   -1.0080    1.8851 S   0  0  0  0  0  0  0  0  0  0  0  0
   -2.6554   -2.0458   -0.5827 O   0  0  0  0  0  0  0  0  0  0  0  0
   -4.0017   -1.8987   -0.1729 C   0  0  0  0  0  0  0  0  0  0  0  0
   -4.6130   -3.2742    0.0685 C   0  0  0  0  0  0  0  0  0  0  0  0
   -4.6552   -4.1202   -1.1963 C   0  0  0  0  0  0  0  0  0  0  0  0
    0.2077   -1.7390   -1.1361 S   0  0  0  0  0  0  0  0  0  0  0  0
    1.1864   -0.2632   -1.5022 C   0  0  0  0  0  0  0  0  0  0  0  0
    1.4767    0.5331   -0.2414 C   0  0  0  0  0  0  0  0  0  0  0  0
    0.5959    1.2762    0.2019 O   0  0  0  0  0  0  0  0  0  0  0  0
    2.7081    0.4079    0.3900 N   0  0  0  0  0  0  0  0  0  0  0  0
    2.9225    1.1508    1.6298 C   0  0  0  0  0  0  0  0  0  0  0  0
    3.9275    2.2787    1.4042 C   0  0  0  0  0  0  0  0  0  0  0  0
    5.1090    1.8500    0.5268 C   0  0  0  0  0  0  0  0  0  0  0  0
    5.2069    0.3317    0.4084 C   0  0  0  0  0  0  0  0  0  0  0  0
    3.9005   -0.2680   -0.1588 C   0  0  1  0  0  0  0  0  0  0  0  0
    3.8752   -1.7723    0.1098 C   0  0  0  0  0  0  0  0  0  0  0  0
  1  2  1  0
  2  3  1  0
  3  4  1  0
  4  5  1  0
  5  6  2  0
  5  7  1  0
  7  8  1  0
  8  9  1  0
  9 10  1  0
  5 11  1  0
 11 12  1  0
 12 13  1  0
 13 14  2  0
 13 15  1  0
 15 16  1  0
 16 17  1  0
 17 18  1  0
 18 19  1  0
 19 20  1  0
 20 21  1  1
 20 15  1  0
M  END
