
     RDKit          3D

 25 27  0  0  0  0  0  0  0  0999 V2000
   -2.5173    2.4455   -0.9395 C   0  0  0  0  0  0  0  0  0  0  0  0
   -3.3986    1.2526   -0.6834 C   0  0  0  0  0  0  0  0  0  0  0  0
   -2.8781    0.0152   -0.5544 C   0  0  0  0  0  0  0  0  0  0  0  0
   -3.6129   -1.2361   -0.3177 C   0  0  1  0  0  0  0  0  0  0  0  0
   -3.0213   -2.4077    0.4407 C   0  0  2  0  0  0  0  0  0  0  0  0
   -4.1268   -1.5714    1.0755 C   0  0  0  0  0  0  0  0  0  0  0  0
   -3.7993   -0.6775    2.2517 C   0  0  0  0  0  0  0  0  0  0  0  0
   -5.4974   -2.1967    1.1732 C   0  0  0  0  0  0  0  0  0  0  0  0
   -1.6486   -2.4359    0.9973 C   0  0  0  0  0  0  0  0  0  0  0  0
   -1.4300   -2.6985    2.1707 O   0  0  0  0  0  0  0  0  0  0  0  0
   -0.7183   -2.2182    0.0368 O   0  0  0  0  0  0  0  0  0  0  0  0
    0.6422   -2.2066    0.4850 C   0  0  0  0  0  0  0  0  0  0  0  0
    1.4085   -1.1445   -0.2253 C   0  0  0  0  0  0  0  0  0  0  0  0
    1.5683   -0.9977   -1.5873 C   0  0  0  0  0  0  0  0  0  0  0  0
    2.3290    0.0887   -1.8725 O   0  0  0  0  0  0  0  0  0  0  0  0
    2.6761    0.6570   -0.6833 C   0  0  0  0  0  0  0  0  0  0  0  0
    2.1279   -0.0622    0.3576 C   0  0  0  0  0  0  0  0  0  0  0  0
    3.5238    1.8770   -0.7455 C   0  0  0  0  0  0  0  0  0  0  0  0
    4.9825    1.5885   -0.4774 C   0  0  0  0  0  0  0  0  0  0  0  0
    5.8049    1.0871   -1.4983 C   0  0  0  0  0  0  0  0  0  0  0  0
    7.1494    0.8071   -1.2493 C   0  0  0  0  0  0  0  0  0  0  0  0
    7.6837    1.0205    0.0217 C   0  0  0  0  0  0  0  0  0  0  0  0
    6.8741    1.5106    1.0457 C   0  0  0  0  0  0  0  0  0  0  0  0
    5.5288    1.7905    0.7987 C   0  0  0  0  0  0  0  0  0  0  0  0
   -4.8678    1.5600   -0.5914 C   0  0  0  0  0  0  0  0  0  0  0  0
  1  2  1  0
  2  3  2  3
  4  3  1  1
  4  5  1  0
  5  6  1  0
  6  7  1  0
  6  8  1  0
  5  9  1  1
  9 10  2  0
  9 11  1  0
 11 12  1  0
 12 13  1  0
 13 14  2  0
 14 15  1  0
 15 16  1  0
 16 17  2  0
 16 18  1  0
 18 19  1  0
 19 20  2  0
 20 21  1  0
 21 22  2  0
 22 23  1  0
 23 24  2  0
  2 25  1  0
  6  4  1  0
 17 13  1  0
 24 19  1  0
M  END
