
     RDKit          3D

 20 21  0  0  0  0  0  0  0  0999 V2000
   -2.8727    0.3551    0.5234 C   0  0  0  0  0  0  0  0  0  0  0  0
   -1.6263   -0.5151    0.7572 C   0  0  0  0  0  0  0  0  0  0  0  0
   -1.9034   -1.3887    2.0035 C   0  0  0  0  0  0  0  0  0  0  0  0
   -1.4642   -1.4551   -0.4520 C   0  0  0  0  0  0  0  0  0  0  0  0
   -0.3110    0.3107    1.0029 C   0  0  2  0  0  0  0  0  0  0  0  0
   -0.4102    1.0778    2.2080 O   0  0  0  0  0  0  0  0  0  0  0  0
    0.2181    1.1918   -0.1437 C   0  0  0  0  0  0  0  0  0  0  0  0
    1.2404    0.7953   -0.9440 C   0  0  0  0  0  0  0  0  0  0  0  0
    2.0017   -0.4571   -0.8575 C   0  0  0  0  0  0  0  0  0  0  0  0
    2.8931   -0.6841    0.1985 C   0  0  0  0  0  0  0  0  0  0  0  0
    3.6288   -1.8704    0.2565 C   0  0  0  0  0  0  0  0  0  0  0  0
    3.4828   -2.8249   -0.7479 C   0  0  0  0  0  0  0  0  0  0  0  0
    4.3881   -4.2858   -0.6777 Cl  0  0  0  0  0  0  0  0  0  0  0  0
    2.6108   -2.6017   -1.8119 C   0  0  0  0  0  0  0  0  0  0  0  0
    1.8746   -1.4154   -1.8698 C   0  0  0  0  0  0  0  0  0  0  0  0
   -0.3883    2.4690   -0.2938 N   0  0  0  0  0  0  0  0  0  0  0  0
   -0.1583    3.4093   -1.2933 C   0  0  0  0  0  0  0  0  0  0  0  0
   -0.8783    4.4918   -1.1229 N   0  0  0  0  0  0  0  0  0  0  0  0
   -1.5596    4.2136    0.0124 C   0  0  0  0  0  0  0  0  0  0  0  0
   -1.3121    3.0239    0.5553 N   0  0  0  0  0  0  0  0  0  0  0  0
  1  2  1  0
  2  3  1  0
  2  4  1  0
  2  5  1  0
  5  6  1  1
  5  7  1  0
  7  8  2  0
  8  9  1  0
  9 10  2  0
 10 11  1  0
 11 12  2  0
 12 13  1  0
 12 14  1  0
 14 15  2  0
  7 16  1  0
 16 17  1  0
 17 18  2  0
 18 19  1  0
 19 20  2  0
 15  9  1  0
 20 16  1  0
M  END
