
     RDKit          3D

 20 21  0  0  0  0  0  0  0  0999 V2000
   -1.4311   -1.1878    0.9161 C   0  0  0  0  0  0  0  0  0  0  0  0
   -1.7935   -0.4791   -0.4000 C   0  0  0  0  0  0  0  0  0  0  0  0
   -2.7741    0.6633   -0.0750 C   0  0  0  0  0  0  0  0  0  0  0  0
   -2.5474   -1.5020   -1.2824 C   0  0  0  0  0  0  0  0  0  0  0  0
   -0.5229    0.0394   -1.1693 C   0  0  2  0  0  0  0  0  0  0  0  0
    0.3219   -1.0622   -1.5184 O   0  0  0  0  0  0  0  0  0  0  0  0
    0.3157    1.1407   -0.4898 C   0  0  0  0  0  0  0  0  0  0  0  0
    1.3611    0.9334    0.3542 C   0  0  0  0  0  0  0  0  0  0  0  0
    1.9559   -0.3199    0.8393 C   0  0  0  0  0  0  0  0  0  0  0  0
    1.7886   -0.6902    2.1798 C   0  0  0  0  0  0  0  0  0  0  0  0
    2.3927   -1.8493    2.6747 C   0  0  0  0  0  0  0  0  0  0  0  0
    3.1820   -2.6308    1.8338 C   0  0  0  0  0  0  0  0  0  0  0  0
    3.9255   -4.0580    2.4422 Cl  0  0  0  0  0  0  0  0  0  0  0  0
    3.3790   -2.2590    0.5063 C   0  0  0  0  0  0  0  0  0  0  0  0
    2.7742   -1.0993    0.0140 C   0  0  0  0  0  0  0  0  0  0  0  0
   -0.0667    2.4642   -0.8675 N   0  0  0  0  0  0  0  0  0  0  0  0
    0.4696    3.6688   -0.4172 C   0  0  0  0  0  0  0  0  0  0  0  0
   -0.1146    4.7048   -0.9697 N   0  0  0  0  0  0  0  0  0  0  0  0
   -1.0273    4.1240   -1.7809 C   0  0  0  0  0  0  0  0  0  0  0  0
   -1.0486    2.7946   -1.7637 N   0  0  0  0  0  0  0  0  0  0  0  0
  1  2  1  0
  2  3  1  0
  2  4  1  0
  2  5  1  0
  5  6  1  1
  5  7  1  0
  7  8  2  0
  8  9  1  0
  9 10  2  0
 10 11  1  0
 11 12  2  0
 12 13  1  0
 12 14  1  0
 14 15  2  0
  7 16  1  0
 16 17  1  0
 17 18  2  0
 18 19  1  0
 19 20  2  0
 15  9  1  0
 20 16  1  0
M  END
