
     RDKit          3D

 18 20  0  0  0  0  0  0  0  0999 V2000
   -4.4815   -0.5666   -0.6647 C   0  0  0  0  0  0  0  0  0  0  0  0
   -2.9664   -0.6916   -0.5673 C   0  0  0  0  0  0  0  0  0  0  0  0
   -2.2581   -0.1722   -1.8244 C   0  0  0  0  0  0  0  0  0  0  0  0
   -0.8674    0.2765   -1.3724 C   0  0  0  0  0  0  0  0  0  0  0  0
   -0.7962   -0.0004    0.1392 C   0  0  1  0  0  0  0  0  0  0  0  0
    0.1786    0.9286    0.8778 C   0  0  0  0  0  0  0  0  0  0  0  0
    1.6087    0.6252    0.5339 C   0  0  0  0  0  0  0  0  0  0  0  0
    2.2464   -0.4503    0.9414 N   0  0  0  0  0  0  0  0  0  0  0  0
    3.5441   -0.4426    0.4574 C   0  0  0  0  0  0  0  0  0  0  0  0
    4.5172   -1.4367    0.6853 C   0  0  0  0  0  0  0  0  0  0  0  0
    5.7950   -1.3004    0.1326 C   0  0  0  0  0  0  0  0  0  0  0  0
    6.1124   -0.1886   -0.6413 C   0  0  0  0  0  0  0  0  0  0  0  0
    5.1652    0.8117   -0.8821 C   0  0  0  0  0  0  0  0  0  0  0  0
    3.8851    0.6640   -0.3221 C   0  0  0  0  0  0  0  0  0  0  0  0
    2.5222    1.7093   -0.4347 S   0  0  0  0  0  0  0  0  0  0  0  0
   -2.2796    0.0606    0.6039 C   0  0  0  0  0  0  0  0  0  0  0  0
   -2.4784   -0.6861    1.9314 C   0  0  0  0  0  0  0  0  0  0  0  0
   -2.7947    1.5031    0.7712 C   0  0  0  0  0  0  0  0  0  0  0  0
  1  2  1  0
  2  3  1  0
  3  4  1  0
  4  5  1  0
  5  6  1  1
  6  7  1  0
  7  8  2  0
  8  9  1  0
  9 10  2  0
 10 11  1  0
 11 12  2  0
 12 13  1  0
 13 14  2  0
 14 15  1  0
  5 16  1  0
 16 17  1  0
 16 18  1  0
 16  2  1  0
 15  7  1  0
 14  9  1  0
M  END
