
     RDKit          3D

 25 27  0  0  0  0  0  0  0  0999 V2000
   -3.9959   -0.4309    1.7746 C   0  0  0  0  0  0  0  0  0  0  0  0
   -4.2229   -0.7909    0.2948 C   0  0  0  0  0  0  0  0  0  0  0  0
   -5.1612   -2.0223    0.2465 C   0  0  0  0  0  0  0  0  0  0  0  0
   -4.9649    0.3677   -0.3934 C   0  0  0  0  0  0  0  0  0  0  0  0
   -2.8784   -1.1454   -0.4231 C   0  0  2  0  0  0  0  0  0  0  0  0
   -2.3956   -2.3895    0.1434 O   0  0  0  0  0  0  0  0  0  0  0  0
   -1.7126   -0.1140   -0.3648 C   0  0  1  0  0  0  0  0  0  0  0  0
   -0.5781   -0.7804   -0.9776 O   0  0  0  0  0  0  0  0  0  0  0  0
    0.6829   -0.4616   -0.5593 C   0  0  0  0  0  0  0  0  0  0  0  0
    1.0460    0.6324    0.2215 C   0  0  0  0  0  0  0  0  0  0  0  0
    2.3890    0.8350    0.5682 C   0  0  0  0  0  0  0  0  0  0  0  0
    3.3964   -0.0432    0.1394 C   0  0  0  0  0  0  0  0  0  0  0  0
    4.8048    0.1762    0.5074 C   0  0  0  0  0  0  0  0  0  0  0  0
    5.8104    0.2266   -0.4726 C   0  0  0  0  0  0  0  0  0  0  0  0
    7.1478    0.4349   -0.1239 C   0  0  0  0  0  0  0  0  0  0  0  0
    7.5027    0.5957    1.2128 C   0  0  0  0  0  0  0  0  0  0  0  0
    6.5222    0.5494    2.2002 C   0  0  0  0  0  0  0  0  0  0  0  0
    5.1852    0.3421    1.8498 C   0  0  0  0  0  0  0  0  0  0  0  0
    3.0157   -1.1331   -0.6559 C   0  0  0  0  0  0  0  0  0  0  0  0
    1.6761   -1.3364   -1.0029 C   0  0  0  0  0  0  0  0  0  0  0  0
   -1.9648    1.1080   -1.1023 N   0  0  0  0  0  0  0  0  0  0  0  0
   -2.0874    1.2622   -2.4501 C   0  0  0  0  0  0  0  0  0  0  0  0
   -2.2854    2.5288   -2.7323 N   0  0  0  0  0  0  0  0  0  0  0  0
   -2.2384    3.1289   -1.5074 C   0  0  0  0  0  0  0  0  0  0  0  0
   -2.0401    2.3036   -0.4758 N   0  0  0  0  0  0  0  0  0  0  0  0
  1  2  1  0
  2  3  1  0
  2  4  1  0
  2  5  1  0
  5  6  1  1
  5  7  1  0
  7  8  1  6
  8  9  1  0
  9 10  2  0
 10 11  1  0
 11 12  2  0
 12 13  1  0
 13 14  2  0
 14 15  1  0
 15 16  2  0
 16 17  1  0
 17 18  2  0
 12 19  1  0
 19 20  2  0
  7 21  1  0
 21 22  1  0
 22 23  2  0
 23 24  1  0
 24 25  2  0
 20  9  1  0
 25 21  1  0
 18 13  1  0
M  END
