
     RDKit          3D

 26 28  0  0  0  0  0  0  0  0999 V2000
   -4.8287   -2.0910    0.7458 C   0  0  0  0  0  0  0  0  0  0  0  0
   -4.3456   -0.8987   -0.0450 C   0  0  0  0  0  0  0  0  0  0  0  0
   -4.7233    0.4210    0.5904 C   0  0  0  0  0  0  0  0  0  0  0  0
   -3.0102   -1.0364   -0.7671 C   0  0  2  0  0  0  0  0  0  0  0  0
   -2.0177    0.0613   -0.8355 C   0  0  0  0  0  0  0  0  0  0  0  0
   -1.5506    0.4435   -1.8972 O   0  0  0  0  0  0  0  0  0  0  0  0
   -1.6851    0.5082    0.4003 O   0  0  0  0  0  0  0  0  0  0  0  0
   -0.6872    1.5318    0.4407 C   0  0  0  0  0  0  0  0  0  0  0  0
    0.6244    0.9247    0.8633 C   0  0  0  0  0  0  0  0  0  0  0  0
    0.9517    0.8048    2.2220 C   0  0  0  0  0  0  0  0  0  0  0  0
    2.1576    0.2162    2.6119 C   0  0  0  0  0  0  0  0  0  0  0  0
    3.0470   -0.2607    1.6493 C   0  0  0  0  0  0  0  0  0  0  0  0
    2.7301   -0.1390    0.2958 C   0  0  0  0  0  0  0  0  0  0  0  0
    3.5470   -0.6354   -0.6942 O   0  0  0  0  0  0  0  0  0  0  0  0
    4.8662   -0.2401   -0.6762 C   0  0  0  0  0  0  0  0  0  0  0  0
    5.2591    1.0861   -0.4816 C   0  0  0  0  0  0  0  0  0  0  0  0
    6.6141    1.4198   -0.5133 C   0  0  0  0  0  0  0  0  0  0  0  0
    7.5709    0.4325   -0.7511 C   0  0  0  0  0  0  0  0  0  0  0  0
    7.1751   -0.8876   -0.9665 C   0  0  0  0  0  0  0  0  0  0  0  0
    5.8212   -1.2234   -0.9364 C   0  0  0  0  0  0  0  0  0  0  0  0
    1.5176    0.4301   -0.0976 C   0  0  0  0  0  0  0  0  0  0  0  0
   -4.3034   -1.0402   -1.5596 C   0  0  2  0  0  0  0  0  0  0  0  0
   -4.7025    0.0825   -2.4242 C   0  0  0  0  0  0  0  0  0  0  0  0
   -5.9509    0.4495   -2.7541 C   0  0  0  0  0  0  0  0  0  0  0  0
   -7.3401   -0.3900   -2.1683 Cl  0  0  0  0  0  0  0  0  0  0  0  0
   -6.2172    1.8002   -3.7979 Cl  0  0  0  0  0  0  0  0  0  0  0  0
  1  2  1  0
  2  3  1  0
  2  4  1  0
  4  5  1  6
  5  6  2  0
  5  7  1  0
  7  8  1  0
  8  9  1  0
  9 10  2  0
 10 11  1  0
 11 12  2  0
 12 13  1  0
 13 14  1  0
 14 15  1  0
 15 16  2  0
 16 17  1  0
 17 18  2  0
 18 19  1  0
 19 20  2  0
 13 21  2  0
  4 22  1  0
 22 23  1  6
 23 24  2  3
 24 25  1  0
 24 26  1  0
 22  2  1  0
 21  9  1  0
 20 15  1  0
M  END
