
     RDKit          3D

 25 27  0  0  0  0  0  0  0  0999 V2000
   -3.6672    1.3604   -1.9719 C   0  0  0  0  0  0  0  0  0  0  0  0
   -3.5085   -0.0968   -1.5043 C   0  0  0  0  0  0  0  0  0  0  0  0
   -2.5399   -0.8249   -2.4594 C   0  0  0  0  0  0  0  0  0  0  0  0
   -4.8918   -0.7774   -1.6683 C   0  0  0  0  0  0  0  0  0  0  0  0
   -3.0703   -0.2004    0.0006 C   0  0  1  0  0  0  0  0  0  0  0  0
   -2.8297   -1.5963    0.3207 O   0  0  0  0  0  0  0  0  0  0  0  0
   -1.8248    0.6029    0.4988 C   0  0  1  0  0  0  0  0  0  0  0  0
   -0.8687    0.8576   -0.5434 O   0  0  0  0  0  0  0  0  0  0  0  0
    0.3787    0.3581   -0.2958 C   0  0  0  0  0  0  0  0  0  0  0  0
    1.4423    1.2512   -0.3734 C   0  0  0  0  0  0  0  0  0  0  0  0
    2.7459    0.8045   -0.1429 C   0  0  0  0  0  0  0  0  0  0  0  0
    3.0092   -0.5454    0.1469 C   0  0  0  0  0  0  0  0  0  0  0  0
    4.3845   -1.0116    0.3989 C   0  0  0  0  0  0  0  0  0  0  0  0
    4.6970   -1.7657    1.5434 C   0  0  0  0  0  0  0  0  0  0  0  0
    6.0045   -2.1946    1.7921 C   0  0  0  0  0  0  0  0  0  0  0  0
    7.0239   -1.8778    0.8988 C   0  0  0  0  0  0  0  0  0  0  0  0
    6.7366   -1.1356   -0.2442 C   0  0  0  0  0  0  0  0  0  0  0  0
    5.4287   -0.7073   -0.4908 C   0  0  0  0  0  0  0  0  0  0  0  0
    1.9203   -1.4351    0.1848 C   0  0  0  0  0  0  0  0  0  0  0  0
    0.6142   -0.9909   -0.0436 C   0  0  0  0  0  0  0  0  0  0  0  0
   -2.1382    1.8917    1.1182 N   0  0  0  0  0  0  0  0  0  0  0  0
   -1.3220    2.5937    1.9596 C   0  0  0  0  0  0  0  0  0  0  0  0
   -1.9300    3.6842    2.3636 N   0  0  0  0  0  0  0  0  0  0  0  0
   -3.1358    3.6138    1.7255 C   0  0  0  0  0  0  0  0  0  0  0  0
   -3.3209    2.5286    0.9697 N   0  0  0  0  0  0  0  0  0  0  0  0
  1  2  1  0
  2  3  1  0
  2  4  1  0
  2  5  1  0
  5  6  1  6
  5  7  1  0
  7  8  1  6
  8  9  1  0
  9 10  2  0
 10 11  1  0
 11 12  2  0
 12 13  1  0
 13 14  2  0
 14 15  1  0
 15 16  2  0
 16 17  1  0
 17 18  2  0
 12 19  1  0
 19 20  2  0
  7 21  1  0
 21 22  1  0
 22 23  2  0
 23 24  1  0
 24 25  2  0
 20  9  1  0
 25 21  1  0
 18 13  1  0
M  END
