
     RDKit          3D

 22 23  0  0  0  0  0  0  0  0999 V2000
    4.3465    0.1778    2.5888 C   0  0  0  0  0  0  0  0  0  0  0  0
    4.1724    0.6491    1.2515 O   0  0  0  0  0  0  0  0  0  0  0  0
    3.4615   -0.2023    0.4509 C   0  0  0  0  0  0  0  0  0  0  0  0
    2.9918   -1.2695    0.8224 O   0  0  0  0  0  0  0  0  0  0  0  0
    3.3312    0.3969   -0.9556 C   0  0  1  0  0  0  0  0  0  0  0  0
    4.6961    0.3343   -1.6379 C   0  0  0  0  0  0  0  0  0  0  0  0
    2.4284   -0.3103   -1.8029 O   0  0  0  0  0  0  0  0  0  0  0  0
    1.0852   -0.1164   -1.6415 C   0  0  0  0  0  0  0  0  0  0  0  0
    0.2905   -0.8000   -2.5676 C   0  0  0  0  0  0  0  0  0  0  0  0
   -1.1012   -0.7025   -2.5238 C   0  0  0  0  0  0  0  0  0  0  0  0
   -1.7070    0.0682   -1.5355 C   0  0  0  0  0  0  0  0  0  0  0  0
   -3.0806    0.1435   -1.5512 O   0  0  0  0  0  0  0  0  0  0  0  0
   -3.7281   -0.0368   -0.3480 C   0  0  0  0  0  0  0  0  0  0  0  0
   -3.4855   -1.1702    0.4381 C   0  0  0  0  0  0  0  0  0  0  0  0
   -4.1837   -1.3504    1.6336 C   0  0  0  0  0  0  0  0  0  0  0  0
   -5.1315   -0.4077    2.0315 C   0  0  0  0  0  0  0  0  0  0  0  0
   -5.9892   -0.6335    3.5060 Cl  0  0  0  0  0  0  0  0  0  0  0  0
   -5.3944    0.7125    1.2450 C   0  0  0  0  0  0  0  0  0  0  0  0
   -4.6960    0.8933    0.0500 C   0  0  0  0  0  0  0  0  0  0  0  0
   -5.0430    2.2904   -0.9026 Cl  0  0  0  0  0  0  0  0  0  0  0  0
   -0.9239    0.7738   -0.6203 C   0  0  0  0  0  0  0  0  0  0  0  0
    0.4714    0.6746   -0.6687 C   0  0  0  0  0  0  0  0  0  0  0  0
  1  2  1  0
  2  3  1  0
  3  4  2  0
  3  5  1  0
  5  6  1  6
  5  7  1  0
  7  8  1  0
  8  9  2  0
  9 10  1  0
 10 11  2  0
 11 12  1  0
 12 13  1  0
 13 14  2  0
 14 15  1  0
 15 16  2  0
 16 17  1  0
 16 18  1  0
 18 19  2  0
 19 20  1  0
 11 21  1  0
 21 22  2  0
 22  8  1  0
 19 13  1  0
M  END
