
     RDKit          3D

 23 23  0  0  0  0  0  0  0  0999 V2000
    4.2925    3.0294   -0.3114 C   0  0  0  0  0  0  0  0  0  0  0  0
    3.9371    1.5538   -0.2178 C   0  0  0  0  0  0  0  0  0  0  0  0
    4.5208    0.9189    1.0431 C   0  0  0  0  0  0  0  0  0  0  0  0
    4.3149   -0.5965    1.1365 C   0  0  0  0  0  0  0  0  0  0  0  0
    2.8501   -1.0327    1.2373 C   0  0  0  0  0  0  0  0  0  0  0  0
    2.2636   -1.4705   -0.1082 C   0  0  0  0  0  0  0  0  0  0  0  0
    0.8453   -1.7632    0.0056 N   0  0  0  0  0  0  0  0  0  0  0  0
    0.3559   -2.9734    0.3968 C   0  0  0  0  0  0  0  0  0  0  0  0
    0.9978   -3.9906    0.6066 O   0  0  0  0  0  0  0  0  0  0  0  0
   -1.1280   -2.8565    0.5711 C   0  0  0  0  0  0  0  0  0  0  0  0
   -1.4771   -1.4794   -0.0012 C   0  0  1  0  0  0  0  0  0  0  0  0
   -2.4135   -0.6494    0.8834 C   0  0  2  0  0  0  0  0  0  0  0  0
   -1.8074   -0.5861    2.1202 F   0  0  0  0  0  0  0  0  0  0  0  0
   -3.7489   -1.3940    1.0141 C   0  0  0  0  0  0  0  0  0  0  0  0
   -4.8504   -1.1126    0.0217 C   0  0  0  0  0  0  0  0  0  0  0  0
   -3.9129   -2.2750    1.8645 O   0  0  0  0  0  0  0  0  0  0  0  0
   -2.6467    0.7698    0.3586 C   0  0  0  0  0  0  0  0  0  0  0  0
   -2.7966    1.7523    1.0744 O   0  0  0  0  0  0  0  0  0  0  0  0
   -2.7625    0.7857   -1.0036 O   0  0  0  0  0  0  0  0  0  0  0  0
   -2.9055    2.0853   -1.5994 C   0  0  0  0  0  0  0  0  0  0  0  0
   -4.3681    2.4923   -1.6312 C   0  0  0  0  0  0  0  0  0  0  0  0
   -0.1295   -0.8198   -0.1319 C   0  0  0  0  0  0  0  0  0  0  0  0
    0.0447    0.3637   -0.3787 O   0  0  0  0  0  0  0  0  0  0  0  0
  1  2  1  0
  2  3  1  0
  3  4  1  0
  4  5  1  0
  5  6  1  0
  6  7  1  0
  7  8  1  0
  8  9  2  0
  8 10  1  0
 11 10  1  1
 11 12  1  0
 12 13  1  1
 12 14  1  0
 14 15  1  0
 14 16  2  0
 12 17  1  0
 17 18  2  0
 17 19  1  0
 19 20  1  0
 20 21  1  0
 11 22  1  0
 22 23  2  0
 22  7  1  0
M  END
