
     RDKit          3D

 19 20  0  0  0  0  0  0  0  0999 V2000
   -1.4182    2.0742    1.9417 O   0  0  0  0  0  0  0  0  0  0  0  0
   -1.5964    1.2783    1.0312 C   0  0  0  0  0  0  0  0  0  0  0  0
   -2.9271    1.1108    0.3123 C   0  0  1  0  0  0  0  0  0  0  0  0
   -3.0639    2.4336   -0.8734 Cl  0  0  0  0  0  0  0  0  0  0  0  0
   -2.7841   -0.2776   -0.3093 C   0  0  1  0  0  0  0  0  0  0  0  0
   -3.6632   -0.6094   -1.5036 C   0  0  0  0  0  0  0  0  0  0  0  0
   -5.3844   -0.5565   -1.0603 Cl  0  0  0  0  0  0  0  0  0  0  0  0
   -1.3006   -0.3457   -0.6384 C   0  0  0  0  0  0  0  0  0  0  0  0
   -0.6691    0.4046    0.4248 N   0  0  0  0  0  0  0  0  0  0  0  0
    0.7237    0.3232    0.7038 C   0  0  0  0  0  0  0  0  0  0  0  0
    1.3040    1.0003    1.7827 C   0  0  0  0  0  0  0  0  0  0  0  0
    2.6753    0.9118    2.0469 C   0  0  0  0  0  0  0  0  0  0  0  0
    3.4983    0.1391    1.2349 C   0  0  0  0  0  0  0  0  0  0  0  0
    2.9538   -0.5576    0.1520 C   0  0  0  0  0  0  0  0  0  0  0  0
    3.8343   -1.3794   -0.7559 C   0  0  0  0  0  0  0  0  0  0  0  0
    3.1984   -2.4774   -1.2544 F   0  0  0  0  0  0  0  0  0  0  0  0
    4.9564   -1.8473   -0.1428 F   0  0  0  0  0  0  0  0  0  0  0  0
    4.2620   -0.6744   -1.8387 F   0  0  0  0  0  0  0  0  0  0  0  0
    1.5721   -0.4509   -0.1060 C   0  0  0  0  0  0  0  0  0  0  0  0
  1  2  2  0
  2  3  1  0
  3  4  1  6
  3  5  1  0
  5  6  1  6
  6  7  1  0
  5  8  1  0
  8  9  1  0
  9 10  1  0
 10 11  2  0
 11 12  1  0
 12 13  2  0
 13 14  1  0
 14 15  1  0
 15 16  1  0
 15 17  1  0
 15 18  1  0
 14 19  2  0
  9  2  1  0
 19 10  1  0
M  END
