
     RDKit          3D

 10 10  0  0  0  0  0  0  0  0999 V2000
    3.5532    0.1454    0.7983 C   0  0  0  0  0  0  0  0  0  0  0  0
    2.0868    0.0315    0.4969 C   0  0  0  0  0  0  0  0  0  0  0  0
    1.3148   -0.9181    1.0549 C   0  0  0  0  0  0  0  0  0  0  0  0
   -0.1483   -1.0900    0.7508 C   0  0  0  0  0  0  0  0  0  0  0  0
   -0.6020   -0.3139   -0.5028 C   0  0  2  0  0  0  0  0  0  0  0  0
   -0.0004    1.0998   -0.4950 C   0  0  0  0  0  0  0  0  0  0  0  0
    1.5311    1.0462   -0.4729 C   0  0  0  0  0  0  0  0  0  0  0  0
   -2.1179   -0.3089   -0.6671 C   0  0  0  0  0  0  0  0  0  0  0  0
   -2.7052   -0.9784   -1.6744 C   0  0  0  0  0  0  0  0  0  0  0  0
   -2.9465    0.4702    0.3196 C   0  0  0  0  0  0  0  0  0  0  0  0
  1  2  1  0
  2  3  2  0
  3  4  1  0
  4  5  1  0
  5  6  1  0
  6  7  1  0
  5  8  1  1
  8  9  2  0
  8 10  1  0
  7  2  1  0
M  END
