
     RDKit          3D

 26 27  0  0  0  0  0  0  0  0999 V2000
    2.9984   -3.8230    2.1792 N   0  0  0  0  0  0  0  0  0  0  0  0
    2.4306   -2.8973    1.7679 C   0  0  0  0  0  0  0  0  0  0  0  0
    1.8003   -1.7028    1.2897 C   0  0  0  0  0  0  0  0  0  0  0  0
    0.5632   -1.7631    0.7868 N   0  0  0  0  0  0  0  0  0  0  0  0
    0.2572   -0.4748    0.4670 N   0  0  0  0  0  0  0  0  0  0  0  0
   -1.0061   -0.1724   -0.0896 C   0  0  0  0  0  0  0  0  0  0  0  0
   -1.8495    0.7763    0.5078 C   0  0  0  0  0  0  0  0  0  0  0  0
   -1.4875    1.5809    1.9964 Cl  0  0  0  0  0  0  0  0  0  0  0  0
   -3.1056    1.0502   -0.0504 C   0  0  0  0  0  0  0  0  0  0  0  0
   -3.5487    0.3757   -1.1963 C   0  0  0  0  0  0  0  0  0  0  0  0
   -4.8950    0.6916   -1.8022 C   0  0  0  0  0  0  0  0  0  0  0  0
   -5.8232    1.0426   -0.8712 F   0  0  0  0  0  0  0  0  0  0  0  0
   -5.4289   -0.3537   -2.4896 F   0  0  0  0  0  0  0  0  0  0  0  0
   -4.8284    1.7285   -2.6793 F   0  0  0  0  0  0  0  0  0  0  0  0
   -2.7021   -0.5717   -1.7861 C   0  0  0  0  0  0  0  0  0  0  0  0
   -1.4426   -0.8518   -1.2393 C   0  0  0  0  0  0  0  0  0  0  0  0
   -0.4569   -1.9655   -2.1269 Cl  0  0  0  0  0  0  0  0  0  0  0  0
    1.3156    0.3933    0.7509 C   0  0  0  0  0  0  0  0  0  0  0  0
    1.3294    1.7256    0.4779 N   0  0  0  0  0  0  0  0  0  0  0  0
    2.3114   -0.3994    1.2737 C   0  0  0  0  0  0  0  0  0  0  0  0
    3.9276    0.1254    1.8240 S   0  0  0  0  0  4  0  0  0  0  0  0
    3.8482    1.6165    2.0210 O   0  0  0  0  0  0  0  0  0  0  0  0
    4.8196   -0.2534    0.2874 C   0  0  0  0  0  0  0  0  0  0  0  0
    6.1409    0.0376    0.3913 F   0  0  0  0  0  0  0  0  0  0  0  0
    4.7339   -1.5756   -0.0135 F   0  0  0  0  0  0  0  0  0  0  0  0
    4.3420    0.4266   -0.7840 F   0  0  0  0  0  0  0  0  0  0  0  0
  1  2  3  0
  2  3  1  0
  3  4  2  0
  4  5  1  0
  5  6  1  0
  6  7  2  0
  7  8  1  0
  7  9  1  0
  9 10  2  0
 10 11  1  0
 11 12  1  0
 11 13  1  0
 11 14  1  0
 10 15  1  0
 15 16  2  0
 16 17  1  0
  5 18  1  0
 18 19  1  0
 18 20  2  0
 20 21  1  0
 21 22  2  0
 21 23  1  6
 23 24  1  0
 23 25  1  0
 23 26  1  0
 20  3  1  0
 16  6  1  0
M  END
