
     RDKit          3D

 22 23  0  0  0  0  0  0  0  0999 V2000
   -6.4399    1.3118    0.7704 C   0  0  0  0  0  0  0  0  0  0  0  0
   -5.4207    0.6977   -0.0200 O   0  0  0  0  0  0  0  0  0  0  0  0
   -4.3523    0.2446    0.7060 C   0  0  0  0  0  0  0  0  0  0  0  0
   -4.2519    0.3505    1.9215 O   0  0  0  0  0  0  0  0  0  0  0  0
   -3.3146   -0.3795   -0.2331 C   0  0  2  0  0  0  0  0  0  0  0  0
   -3.8985   -1.6398   -0.8629 C   0  0  0  0  0  0  0  0  0  0  0  0
   -2.1616   -0.7325    0.5351 O   0  0  0  0  0  0  0  0  0  0  0  0
   -0.9286   -0.6104   -0.0384 C   0  0  0  0  0  0  0  0  0  0  0  0
   -0.6600   -0.5098   -1.4021 C   0  0  0  0  0  0  0  0  0  0  0  0
    0.6617   -0.4029   -1.8493 C   0  0  0  0  0  0  0  0  0  0  0  0
    1.7227   -0.3938   -0.9409 C   0  0  0  0  0  0  0  0  0  0  0  0
    2.9781   -0.2957   -1.5030 O   0  0  0  0  0  0  0  0  0  0  0  0
    4.0094    0.1177   -0.6957 C   0  0  0  0  0  0  0  0  0  0  0  0
    4.8913   -0.8586   -0.2227 C   0  0  0  0  0  0  0  0  0  0  0  0
    5.9753   -0.4857    0.5726 C   0  0  0  0  0  0  0  0  0  0  0  0
    6.1815    0.8609    0.8745 C   0  0  0  0  0  0  0  0  0  0  0  0
    7.5201    1.3164    1.8550 Cl  0  0  0  0  0  0  0  0  0  0  0  0
    5.3206    1.8417    0.3830 C   0  0  0  0  0  0  0  0  0  0  0  0
    4.2358    1.4704   -0.4131 C   0  0  0  0  0  0  0  0  0  0  0  0
    3.2154    2.7125   -1.0405 Cl  0  0  0  0  0  0  0  0  0  0  0  0
    1.4575   -0.5167    0.4232 C   0  0  0  0  0  0  0  0  0  0  0  0
    0.1359   -0.6252    0.8665 C   0  0  0  0  0  0  0  0  0  0  0  0
  1  2  1  0
  2  3  1  0
  3  4  2  0
  3  5  1  0
  5  6  1  1
  5  7  1  0
  7  8  1  0
  8  9  2  0
  9 10  1  0
 10 11  2  0
 11 12  1  0
 12 13  1  0
 13 14  2  0
 14 15  1  0
 15 16  2  0
 16 17  1  0
 16 18  1  0
 18 19  2  0
 19 20  1  0
 11 21  1  0
 21 22  2  0
 22  8  1  0
 19 13  1  0
M  END
