
     RDKit          3D

 11 11  0  0  0  0  0  0  0  0999 V2000
    3.0111    0.7825    1.5499 C   0  0  0  0  0  0  0  0  0  0  0  0
    1.9028    0.5867    0.5564 C   0  0  0  0  0  0  0  0  0  0  0  0
    1.1224    1.6010    0.1442 C   0  0  0  0  0  0  0  0  0  0  0  0
   -0.0126    1.4325   -0.8252 C   0  0  0  0  0  0  0  0  0  0  0  0
   -0.4857   -0.0284   -1.0247 C   0  0  1  0  0  0  0  0  0  0  0  0
    0.7722   -0.9138   -1.1563 C   0  0  0  0  0  0  0  0  0  0  0  0
    1.7175   -0.8218    0.0449 C   0  0  0  0  0  0  0  0  0  0  0  0
   -1.5351   -0.5358    0.0252 C   0  0  0  0  0  0  0  0  0  0  0  0
   -2.7846    0.3582    0.0627 C   0  0  0  0  0  0  0  0  0  0  0  0
   -1.9875   -1.9692   -0.2945 C   0  0  0  0  0  0  0  0  0  0  0  0
   -1.0056   -0.5744    1.3490 O   0  0  0  0  0  0  0  0  0  0  0  0
  1  2  1  0
  2  3  2  0
  3  4  1  0
  4  5  1  0
  5  6  1  0
  6  7  1  0
  5  8  1  1
  8  9  1  0
  8 10  1  0
  8 11  1  0
  7  2  1  0
M  END
