
     RDKit          3D

 21 21  0  0  0  0  0  0  0  0999 V2000
   -7.0930   -0.1518    0.4237 C   0  0  0  0  0  0  0  0  0  0  0  0
   -6.4297    0.2628   -0.8806 C   0  0  0  0  0  0  0  0  0  0  0  0
   -4.9613    0.6646   -0.7170 C   0  0  0  0  0  0  0  0  0  0  0  0
   -4.0648   -0.4955   -0.2721 C   0  0  0  0  0  0  0  0  0  0  0  0
   -2.5576   -0.1676   -0.3261 C   0  0  1  0  0  0  0  0  0  0  0  0
   -2.1451    1.0574    0.5201 C   0  0  0  0  0  0  0  0  0  0  0  0
   -2.4324    0.9402    2.0104 C   0  0  0  0  0  0  0  0  0  0  0  0
   -1.7502   -1.4297    0.0360 C   0  0  0  0  0  0  0  0  0  0  0  0
   -0.3372   -1.1792   -0.0104 O   0  0  0  0  0  0  0  0  0  0  0  0
    0.2442   -1.3036   -1.2269 C   0  0  0  0  0  0  0  0  0  0  0  0
   -0.3152   -1.6116   -2.2688 O   0  0  0  0  0  0  0  0  0  0  0  0
    1.6919   -1.0109   -1.1765 C   0  0  0  0  0  0  0  0  0  0  0  0
    2.3516   -0.6358   -0.0692 C   0  0  0  0  0  0  0  0  0  0  0  0
    3.7931   -0.3545   -0.0339 C   0  0  0  0  0  0  0  0  0  0  0  0
    4.4578    0.2986   -1.0793 C   0  0  0  0  0  0  0  0  0  0  0  0
    5.8290    0.5757   -0.9968 C   0  0  0  0  0  0  0  0  0  0  0  0
    6.5517    0.2117    0.1382 C   0  0  0  0  0  0  0  0  0  0  0  0
    7.8864    0.4220    0.3461 O   0  0  0  0  0  0  0  0  0  0  0  0
    8.6079    1.0578   -0.7013 C   0  0  0  0  0  0  0  0  0  0  0  0
    5.8896   -0.4247    1.1893 C   0  0  0  0  0  0  0  0  0  0  0  0
    4.5214   -0.7011    1.1089 C   0  0  0  0  0  0  0  0  0  0  0  0
  1  2  1  0
  2  3  1  0
  3  4  1  0
  5  4  1  1
  5  6  1  0
  6  7  1  0
  5  8  1  0
  8  9  1  0
  9 10  1  0
 10 11  2  0
 10 12  1  0
 12 13  2  0
 13 14  1  0
 14 15  2  0
 15 16  1  0
 16 17  2  0
 17 18  1  0
 18 19  1  0
 17 20  1  0
 20 21  2  0
 21 14  1  0
M  END
