
     RDKit          3D

 22 23  0  0  0  0  0  0  0  0999 V2000
    5.4078    2.1753    0.4199 C   0  0  0  0  0  0  0  0  0  0  0  0
    4.9430    0.8344    0.2553 O   0  0  0  0  0  0  0  0  0  0  0  0
    3.7725    0.5666    0.9111 C   0  0  0  0  0  0  0  0  0  0  0  0
    3.1468    1.3860    1.5709 O   0  0  0  0  0  0  0  0  0  0  0  0
    3.3657   -0.8923    0.6674 C   0  0  1  0  0  0  0  0  0  0  0  0
    4.3343   -1.8022    1.4201 C   0  0  0  0  0  0  0  0  0  0  0  0
    2.0615   -1.2123    1.1489 O   0  0  0  0  0  0  0  0  0  0  0  0
    0.9837   -0.9130    0.3640 C   0  0  0  0  0  0  0  0  0  0  0  0
    0.9909   -0.1202   -0.7845 C   0  0  0  0  0  0  0  0  0  0  0  0
   -0.1973    0.1064   -1.4876 C   0  0  0  0  0  0  0  0  0  0  0  0
   -1.3962   -0.4431   -1.0358 C   0  0  0  0  0  0  0  0  0  0  0  0
   -2.5184   -0.1950   -1.7925 O   0  0  0  0  0  0  0  0  0  0  0  0
   -3.6720    0.1346   -1.1148 C   0  0  0  0  0  0  0  0  0  0  0  0
   -3.6901    1.1942   -0.1995 C   0  0  0  0  0  0  0  0  0  0  0  0
   -4.8796    1.5339    0.4478 C   0  0  0  0  0  0  0  0  0  0  0  0
   -6.0485    0.8266    0.1666 C   0  0  0  0  0  0  0  0  0  0  0  0
   -7.5123    1.2478    0.9675 Cl  0  0  0  0  0  0  0  0  0  0  0  0
   -6.0444   -0.2144   -0.7601 C   0  0  0  0  0  0  0  0  0  0  0  0
   -4.8550   -0.5551   -1.4066 C   0  0  0  0  0  0  0  0  0  0  0  0
   -4.8816   -1.8472   -2.5506 Cl  0  0  0  0  0  0  0  0  0  0  0  0
   -1.4083   -1.2528    0.0994 C   0  0  0  0  0  0  0  0  0  0  0  0
   -0.2210   -1.4732    0.8006 C   0  0  0  0  0  0  0  0  0  0  0  0
  1  2  1  0
  2  3  1  0
  3  4  2  0
  3  5  1  0
  5  6  1  1
  5  7  1  0
  7  8  1  0
  8  9  2  0
  9 10  1  0
 10 11  2  0
 11 12  1  0
 12 13  1  0
 13 14  2  0
 14 15  1  0
 15 16  2  0
 16 17  1  0
 16 18  1  0
 18 19  2  0
 19 20  1  0
 11 21  1  0
 21 22  2  0
 22  8  1  0
 19 13  1  0
M  END
