
     RDKit          3D

 12 12  0  0  0  0  0  0  0  0999 V2000
   -2.2074   -1.7857   -0.5778 C   0  0  0  0  0  0  0  0  0  0  0  0
   -1.5262   -0.4426   -0.2824 C   0  0  1  0  0  0  0  0  0  0  0  0
   -1.1074   -0.3335    1.1831 C   0  0  0  0  0  0  0  0  0  0  0  0
    0.2506   -0.9944    1.1991 C   0  0  0  0  0  0  0  0  0  0  0  0
    0.8292   -0.6531   -0.1703 C   0  0  1  0  0  0  0  0  0  0  0  0
   -0.3001   -0.4117   -1.0367 O   0  0  0  0  0  0  0  0  0  0  0  0
    1.8159    0.5547   -0.2062 C   0  0  0  0  0  0  0  0  0  0  0  0
    2.1264    0.9572   -1.6531 C   0  0  0  0  0  0  0  0  0  0  0  0
    3.1267    0.2157    0.5151 C   0  0  0  0  0  0  0  0  0  0  0  0
    1.2591    1.7157    0.4238 O   0  0  0  0  0  0  0  0  0  0  0  0
   -2.3963    0.6743   -0.8032 C   0  0  0  0  0  0  0  0  0  0  0  0
   -3.1391    1.5342   -0.0918 C   0  0  0  0  0  0  0  0  0  0  0  0
  2  1  1  1
  2  3  1  0
  3  4  1  0
  4  5  1  0
  5  6  1  0
  5  7  1  1
  7  8  1  0
  7  9  1  0
  7 10  1  0
  2 11  1  0
 11 12  2  0
  6  2  1  0
M  END
