
     RDKit          3D

 13 13  0  0  0  0  0  0  0  0999 V2000
   -3.0671   -0.5915    0.5030 C   0  0  0  0  0  0  0  0  0  0  0  0
   -1.6310   -0.6487    0.0501 C   0  0  0  0  0  0  0  0  0  0  0  0
   -0.9333   -1.6395    0.2669 O   0  0  0  0  0  0  0  0  0  0  0  0
   -1.0937    0.5593   -0.7156 C   0  0  2  0  0  0  0  0  0  0  0  0
   -1.4592    0.4410   -2.1917 C   0  0  0  0  0  0  0  0  0  0  0  0
    0.4135    0.7689   -0.5002 C   0  0  2  0  0  0  0  0  0  0  0  0
    1.3600   -0.2531   -1.1262 C   0  0  0  0  0  0  0  0  0  0  0  0
    2.3561   -0.5442   -0.0398 C   0  0  0  0  0  0  0  0  0  0  0  0
    3.3501   -1.2398   -0.1878 O   0  0  0  0  0  0  0  0  0  0  0  0
    1.9578    0.0764    1.1085 N   0  0  0  0  0  0  0  0  0  0  0  0
    2.6152   -0.1158    2.3775 C   0  0  0  0  0  0  0  0  0  0  0  0
    0.7830    0.7515    0.9632 C   0  0  0  0  0  0  0  0  0  0  0  0
    0.1284    1.2933    1.8425 O   0  0  0  0  0  0  0  0  0  0  0  0
  1  2  1  0
  2  3  2  0
  2  4  1  0
  4  5  1  6
  4  6  1  0
  6  7  1  6
  7  8  1  0
  8  9  2  0
  8 10  1  0
 10 11  1  0
 10 12  1  0
 12 13  2  0
 12  6  1  0
M  END
