
     RDKit          3D

 14 15  0  0  0  0  0  0  0  0999 V2000
    3.8325   -0.2936    0.0885 C   0  0  0  0  0  0  0  0  0  0  0  0
    2.4770    0.0608    0.4333 N   0  0  0  0  0  0  0  0  0  0  0  0
    2.0575    1.3510    0.5806 C   0  0  0  0  0  0  0  0  0  0  0  0
    2.7502    2.3561    0.5380 O   0  0  0  0  0  0  0  0  0  0  0  0
    0.5610    1.3605    0.7183 C   0  0  0  0  0  0  0  0  0  0  0  0
    0.2058   -0.1098    0.9055 C   0  0  1  0  0  0  0  0  0  0  0  0
   -1.0660   -0.6256    0.2380 C   0  0  2  0  0  0  0  0  0  0  0  0
   -1.2258   -0.3695   -1.2671 C   0  0  0  0  0  0  0  0  0  0  0  0
   -2.2620    0.7402   -1.4140 C   0  0  0  0  0  0  0  0  0  0  0  0
   -3.2213    0.5540   -0.2506 C   0  0  0  0  0  0  0  0  0  0  0  0
   -2.3000    0.0315    0.8152 C   0  0  0  0  0  0  0  0  0  0  0  0
   -2.5342    0.1061    2.0146 O   0  0  0  0  0  0  0  0  0  0  0  0
    1.4399   -0.8263    0.4178 C   0  0  0  0  0  0  0  0  0  0  0  0
    1.4868   -2.0000    0.0844 O   0  0  0  0  0  0  0  0  0  0  0  0
  1  2  1  0
  2  3  1  0
  3  4  2  0
  3  5  1  0
  6  5  1  6
  6  7  1  0
  7  8  1  6
  8  9  1  0
  9 10  1  0
 10 11  1  0
 11 12  2  0
  6 13  1  0
 13 14  2  0
 13  2  1  0
 11  7  1  0
M  END
