
     RDKit          3D

 11 10  0  0  0  0  0  0  0  0999 V2000
   -2.7225   -0.0809    1.2506 C   0  0  0  0  0  0  0  0  0  0  0  0
   -1.7533    1.0198    0.9193 C   0  0  0  0  0  0  0  0  0  0  0  0
   -0.4194    0.8643    0.7889 C   0  0  0  0  0  0  0  0  0  0  0  0
    0.4376   -0.3618    0.9882 C   0  0  2  0  0  0  0  0  0  0  0  0
    0.5523   -1.2336   -0.2782 C   0  0  0  0  0  0  0  0  0  0  0  0
    1.3298   -0.5953   -1.4147 C   0  0  0  0  0  0  0  0  0  0  0  0
    0.6773   -0.0875   -2.4752 C   0  0  0  0  0  0  0  0  0  0  0  0
    2.7843   -0.5517   -1.3861 C   0  0  0  0  0  0  0  0  0  0  0  0
    3.5858   -1.0713   -0.4478 C   0  0  0  0  0  0  0  0  0  0  0  0
   -0.0748   -1.1403    2.0694 O   0  0  0  0  0  0  0  0  0  0  0  0
   -2.3920    2.3686    0.7171 C   0  0  0  0  0  0  0  0  0  0  0  0
  1  2  1  0
  2  3  2  3
  3  4  1  0
  4  5  1  0
  5  6  1  0
  6  7  2  0
  6  8  1  0
  8  9  2  0
  4 10  1  1
  2 11  1  0
M  END
