
     RDKit          3D

 14 15  0  0  0  0  0  0  0  0999 V2000
    3.6570    0.6334   -0.6050 C   0  0  0  0  0  0  0  0  0  0  0  0
    2.5966    0.0730    0.2920 C   0  0  0  0  0  0  0  0  0  0  0  0
    2.8008   -0.3720    1.4118 O   0  0  0  0  0  0  0  0  0  0  0  0
    1.3862    0.1333   -0.3245 O   0  0  0  0  0  0  0  0  0  0  0  0
    0.2661   -0.3774    0.4324 C   0  0  2  0  0  0  0  0  0  0  0  0
    0.2191   -1.8933    0.2357 C   0  0  0  0  0  0  0  0  0  0  0  0
   -0.9890   -2.4963    0.9185 C   0  0  0  0  0  0  0  0  0  0  0  0
   -2.5016   -2.0146    0.0545 S   0  0  0  0  0  0  0  0  0  0  0  0
   -2.2182   -0.2746   -0.1809 C   0  0  0  0  0  0  0  0  0  0  0  0
   -3.3354    0.4001   -0.5497 N   0  0  0  0  0  0  0  0  0  0  0  0
   -3.2426    1.7300   -0.7469 C   0  0  0  0  0  0  0  0  0  0  0  0
   -2.0735    2.4429   -0.5880 C   0  0  0  0  0  0  0  0  0  0  0  0
   -0.9339    1.7433   -0.2117 C   0  0  0  0  0  0  0  0  0  0  0  0
   -0.9810    0.3507   -0.0155 C   0  0  0  0  0  0  0  0  0  0  0  0
  1  2  1  0
  2  3  2  0
  2  4  1  0
  5  4  1  6
  5  6  1  0
  6  7  1  0
  7  8  1  0
  8  9  1  0
  9 10  2  0
 10 11  1  0
 11 12  2  0
 12 13  1  0
 13 14  2  0
 14  5  1  0
 14  9  1  0
M  END
