
     RDKit          3D

 18 19  0  0  0  0  0  0  0  0999 V2000
    4.3226   -0.0116   -0.3402 C   0  0  0  0  0  0  0  0  0  0  0  0
    3.3477   -0.6165    0.6577 C   0  0  0  0  0  0  0  0  0  0  0  0
    2.0056   -0.6952    0.1131 N   0  0  0  0  0  0  0  0  0  0  0  0
    1.5504   -1.7541   -0.6128 C   0  0  0  0  0  0  0  0  0  0  0  0
    2.1794   -2.7470   -0.9444 O   0  0  0  0  0  0  0  0  0  0  0  0
    0.1124   -1.5150   -0.9683 C   0  0  0  0  0  0  0  0  0  0  0  0
   -0.1500   -0.0571   -0.5716 C   0  0  1  0  0  0  0  0  0  0  0  0
   -1.4401    0.2150    0.2296 C   0  0  1  0  0  0  0  0  0  0  0  0
   -1.6335    1.6898    0.6066 C   0  0  0  0  0  0  0  0  0  0  0  0
   -1.3617    2.7525   -0.4344 C   0  0  0  0  0  0  0  0  0  0  0  0
   -2.1215    2.0113    1.6921 O   0  0  0  0  0  0  0  0  0  0  0  0
   -2.6993   -0.2398   -0.5145 C   0  0  0  0  0  0  0  0  0  0  0  0
   -3.6221   -0.6531    0.6084 C   0  0  0  0  0  0  0  0  0  0  0  0
   -2.7613   -1.1964    1.6038 O   0  0  0  0  0  0  0  0  0  0  0  0
   -1.5083   -0.6752    1.4533 C   0  0  0  0  0  0  0  0  0  0  0  0
   -0.5638   -0.9711    2.1683 O   0  0  0  0  0  0  0  0  0  0  0  0
    1.1052    0.3251    0.1850 C   0  0  0  0  0  0  0  0  0  0  0  0
    1.2820    1.4196    0.6980 O   0  0  0  0  0  0  0  0  0  0  0  0
  1  2  1  0
  2  3  1  0
  3  4  1  0
  4  5  2  0
  4  6  1  0
  7  6  1  1
  7  8  1  0
  8  9  1  1
  9 10  1  0
  9 11  2  0
  8 12  1  0
 12 13  1  0
 13 14  1  0
 14 15  1  0
 15 16  2  0
  7 17  1  0
 17 18  2  0
 17  3  1  0
 15  8  1  0
M  END
