
     RDKit          3D

  6  5  0  0  0  0  0  0  0  0999 V2000
   -1.3502   -0.1028    0.8201 C   0  0  0  0  0  0  0  0  0  0  0  0
   -0.6369   -0.3326   -0.4997 C   0  0  2  0  0  0  0  0  0  0  0  0
    0.7140    0.3860   -0.5338 C   0  0  0  0  0  0  0  0  0  0  0  0
    0.8916    1.3599   -1.2702 O   0  0  0  0  0  0  0  0  0  0  0  0
    1.8030   -0.1346    0.3652 C   0  0  0  0  0  0  0  0  0  0  0  0
   -1.4766    0.1396   -1.5511 O   0  0  0  0  0  0  0  0  0  0  0  0
  2  1  1  1
  2  3  1  0
  3  4  2  0
  3  5  1  0
  2  6  1  0
M  END
