
     RDKit          3D

 18 18  0  0  0  0  0  0  0  0999 V2000
   -3.0359   -2.5447    1.9521 C   0  0  0  0  0  0  0  0  0  0  0  0
   -3.0421   -1.8151    0.6243 C   0  0  0  0  0  0  0  0  0  0  0  0
   -1.8603   -1.0377    0.5332 O   0  0  0  0  0  0  0  0  0  0  0  0
   -1.7107   -0.0014   -0.7035 P   0  0  0  0  0  5  0  0  0  0  0  0
   -1.7044   -0.7680   -2.4875 S   0  0  0  0  0  0  0  0  0  0  0  0
   -2.9226    1.0271   -0.3828 O   0  0  0  0  0  0  0  0  0  0  0  0
   -3.0105    2.2223   -1.1407 C   0  0  0  0  0  0  0  0  0  0  0  0
   -4.0199    3.1383   -0.4795 C   0  0  0  0  0  0  0  0  0  0  0  0
   -0.4286    0.8760   -0.2611 O   0  0  0  0  0  0  0  0  0  0  0  0
    0.8551    0.4277   -0.1365 C   0  0  0  0  0  0  0  0  0  0  0  0
    1.2333   -0.9118   -0.1743 C   0  0  0  0  0  0  0  0  0  0  0  0
    2.5816   -1.2613   -0.0373 C   0  0  0  0  0  0  0  0  0  0  0  0
    3.5565   -0.2734    0.1379 C   0  0  0  0  0  0  0  0  0  0  0  0
    5.2915   -0.7486    0.3118 S   0  0  0  0  0  4  0  0  0  0  0  0
    5.6089   -1.0767   -1.4414 C   0  0  0  0  0  0  0  0  0  0  0  0
    6.0302    0.5082    0.6694 O   0  0  0  0  0  0  0  0  0  0  0  0
    3.1687    1.0674    0.1930 C   0  0  0  0  0  0  0  0  0  0  0  0
    1.8229    1.4147    0.0553 C   0  0  0  0  0  0  0  0  0  0  0  0
  1  2  1  0
  2  3  1  0
  3  4  1  0
  4  5  2  0
  4  6  1  0
  6  7  1  0
  7  8  1  0
  4  9  1  0
  9 10  1  0
 10 11  2  0
 11 12  1  0
 12 13  2  0
 13 14  1  0
 14 15  1  6
 14 16  2  0
 13 17  1  0
 17 18  2  0
 18 10  1  0
M  END
