
     RDKit          3D

 20 21  0  0  0  0  0  0  0  0999 V2000
    4.2949   -0.1805   -1.0026 C   0  0  0  0  0  0  0  0  0  0  0  0
    3.2162   -1.2350   -1.1629 C   0  0  0  0  0  0  0  0  0  0  0  0
    1.9179   -0.6236   -1.0999 O   0  0  0  0  0  0  0  0  0  0  0  0
    1.3883   -0.4510    0.1392 C   0  0  0  0  0  0  0  0  0  0  0  0
    1.9343   -0.8043    1.1771 O   0  0  0  0  0  0  0  0  0  0  0  0
   -0.0013    0.1847    0.0838 C   0  0  1  0  0  0  0  0  0  0  0  0
   -1.0117   -0.9826   -0.0624 C   0  0  1  0  0  0  0  0  0  0  0  0
   -0.9127   -2.1126    0.9663 C   0  0  0  0  0  0  0  0  0  0  0  0
   -2.3333   -2.5741    1.1269 C   0  0  0  0  0  0  0  0  0  0  0  0
   -2.6683   -3.5758    1.7394 O   0  0  0  0  0  0  0  0  0  0  0  0
   -3.1562   -1.6470    0.5570 N   0  0  0  0  0  0  0  0  0  0  0  0
   -4.5881   -1.6529    0.7345 C   0  0  0  0  0  0  0  0  0  0  0  0
   -2.4645   -0.5773    0.0643 C   0  0  0  0  0  0  0  0  0  0  0  0
   -2.9297    0.5159   -0.2151 O   0  0  0  0  0  0  0  0  0  0  0  0
   -0.2264    1.0134    1.3759 C   0  0  0  0  0  0  0  0  0  0  0  0
    0.6158    2.2896    1.4287 C   0  0  0  0  0  0  0  0  0  0  0  0
    0.3285    3.1705    0.2211 C   0  0  0  0  0  0  0  0  0  0  0  0
    0.6234    2.4387   -1.0754 C   0  0  0  0  0  0  0  0  0  0  0  0
   -0.1031    1.1104   -1.1405 C   0  0  0  0  0  0  0  0  0  0  0  0
   -0.6360    0.7500   -2.1924 O   0  0  0  0  0  0  0  0  0  0  0  0
  1  2  1  0
  2  3  1  0
  3  4  1  0
  4  5  2  0
  6  4  1  1
  6  7  1  0
  7  8  1  1
  8  9  1  0
  9 10  2  0
  9 11  1  0
 11 12  1  0
 11 13  1  0
 13 14  2  0
  6 15  1  0
 15 16  1  0
 16 17  1  0
 17 18  1  0
 18 19  1  0
 19 20  2  0
 19  6  1  0
 13  7  1  0
M  END
