
     RDKit          3D

 19 20  0  0  0  0  0  0  0  0999 V2000
   -0.3048   -1.0166    2.2658 O   0  0  0  0  0  0  0  0  0  0  0  0
   -1.0041   -0.5781    1.3642 C   0  0  0  0  0  0  0  0  0  0  0  0
   -2.5249   -0.5955    1.3741 C   0  0  1  0  0  0  0  0  0  0  0  0
   -3.1292   -0.0435    2.9476 Cl  0  0  0  0  0  0  0  0  0  0  0  0
   -2.9128    0.3493    0.2382 C   0  0  2  0  0  0  0  0  0  0  0  0
   -4.2096   -0.0092   -0.4781 C   0  0  0  0  0  0  0  0  0  0  0  0
   -5.6420    0.2388    0.5377 Cl  0  0  0  0  0  0  0  0  0  0  0  0
   -1.7305    0.2264   -0.7144 C   0  0  0  0  0  0  0  0  0  0  0  0
   -0.5922   -0.0504    0.1262 N   0  0  0  0  0  0  0  0  0  0  0  0
    0.7492    0.0728   -0.3347 C   0  0  0  0  0  0  0  0  0  0  0  0
    1.0184    0.3866   -1.6765 C   0  0  0  0  0  0  0  0  0  0  0  0
    2.3296    0.5100   -2.1473 C   0  0  0  0  0  0  0  0  0  0  0  0
    3.4029    0.3265   -1.2821 C   0  0  0  0  0  0  0  0  0  0  0  0
    3.1725    0.0248    0.0642 C   0  0  0  0  0  0  0  0  0  0  0  0
    4.3207   -0.1888    1.0204 C   0  0  0  0  0  0  0  0  0  0  0  0
    4.5151   -1.5035    1.3143 F   0  0  0  0  0  0  0  0  0  0  0  0
    4.1442    0.4445    2.2126 F   0  0  0  0  0  0  0  0  0  0  0  0
    5.5130    0.2631    0.5367 F   0  0  0  0  0  0  0  0  0  0  0  0
    1.8455   -0.1030    0.5209 C   0  0  0  0  0  0  0  0  0  0  0  0
  1  2  2  0
  2  3  1  0
  3  4  1  1
  3  5  1  0
  5  6  1  6
  6  7  1  0
  5  8  1  0
  8  9  1  0
  9 10  1  0
 10 11  2  0
 11 12  1  0
 12 13  2  0
 13 14  1  0
 14 15  1  0
 15 16  1  0
 15 17  1  0
 15 18  1  0
 14 19  2  0
  9  2  1  0
 19 10  1  0
M  END
