
     RDKit          3D

  9  8  0  0  0  0  0  0  0  0999 V2000
    2.7314    1.3395    0.2870 C   0  0  0  0  0  0  0  0  0  0  0  0
    2.4189    0.3622   -0.8307 C   0  0  0  0  0  0  0  0  0  0  0  0
    0.9989    0.2380   -0.9954 O   0  0  0  0  0  0  0  0  0  0  0  0
    0.3880   -0.6832   -0.1989 C   0  0  0  0  0  0  0  0  0  0  0  0
    0.9519   -1.3911    0.6243 O   0  0  0  0  0  0  0  0  0  0  0  0
   -1.1067   -0.6917   -0.4632 C   0  0  1  0  0  0  0  0  0  0  0  0
   -1.5486   -2.1240   -0.7569 C   0  0  0  0  0  0  0  0  0  0  0  0
   -1.8677   -0.1143    0.7366 C   0  0  0  0  0  0  0  0  0  0  0  0
   -1.6060    1.3726    0.9382 C   0  0  0  0  0  0  0  0  0  0  0  0
  1  2  1  0
  2  3  1  0
  3  4  1  0
  4  5  2  0
  4  6  1  0
  6  7  1  1
  6  8  1  0
  8  9  1  0
M  END
