
     RDKit          3D

  7  6  0  0  0  0  0  0  0  0999 V2000
   -1.7266   -1.3602    0.4685 C   0  0  0  0  0  0  0  0  0  0  0  0
   -0.9854   -0.6017   -0.4669 O   0  0  0  0  0  0  0  0  0  0  0  0
   -0.4844    0.8572    0.0058 P   0  0  2  0  0  5  0  0  0  0  0  0
   -1.5726    1.6273    0.6890 O   0  0  0  0  0  0  0  0  0  0  0  0
    0.0036    1.5727   -1.3863 N   0  0  0  0  0  0  0  0  0  0  0  0
    1.1840    0.6753    1.2306 S   0  0  0  0  0  0  0  0  0  0  0  0
    2.2951   -0.3874    0.2947 C   0  0  0  0  0  0  0  0  0  0  0  0
  1  2  1  0
  2  3  1  0
  3  4  2  0
  3  5  1  6
  3  6  1  0
  6  7  1  0
M  END
