
     RDKit          3D

 16 15  0  0  0  0  0  0  0  0999 V2000
   -4.6269    0.1600   -2.0949 C   0  0  0  0  0  0  0  0  0  0  0  0
   -3.9867   -0.5937   -0.9587 C   0  0  0  0  0  0  0  0  0  0  0  0
   -2.6685   -0.4692   -0.7102 C   0  0  0  0  0  0  0  0  0  0  0  0
   -1.8610   -1.1629    0.3542 C   0  0  0  0  0  0  0  0  0  0  0  0
   -1.5950   -0.2943    1.5922 C   0  0  0  0  0  0  0  0  0  0  0  0
   -0.7117    0.9126    1.3436 C   0  0  0  0  0  0  0  0  0  0  0  0
    0.6339    0.8713    1.2626 C   0  0  0  0  0  0  0  0  0  0  0  0
    1.5241   -0.3354    1.3757 C   0  0  0  0  0  0  0  0  0  0  0  0
    2.2878   -0.6851    0.0869 C   0  0  0  0  0  0  0  0  0  0  0  0
    3.4154    0.2762   -0.3622 C   0  0  1  0  0  0  0  0  0  0  0  0
    4.4030    0.5798    0.7711 C   0  0  0  0  0  0  0  0  0  0  0  0
    4.0596   -0.2980   -1.6100 C   0  0  0  0  0  0  0  0  0  0  0  0
    5.3321   -0.6821   -1.7845 C   0  0  0  0  0  0  0  0  0  0  0  0
    2.8446    1.5189   -0.7733 O   0  0  0  0  0  0  0  0  0  0  0  0
   -1.4407    2.2262    1.2163 C   0  0  0  0  0  0  0  0  0  0  0  0
   -4.9385   -1.4438   -0.1640 C   0  0  0  0  0  0  0  0  0  0  0  0
  1  2  1  0
  2  3  2  3
  3  4  1  0
  4  5  1  0
  5  6  1  0
  6  7  2  0
  7  8  1  0
  8  9  1  0
  9 10  1  0
 10 11  1  1
 10 12  1  0
 12 13  2  0
 10 14  1  0
  6 15  1  0
  2 16  1  0
M  END
