
     RDKit          3D

 26 28  0  0  0  0  0  0  0  0999 V2000
   -5.2163    1.5979   -0.3218 C   0  0  0  0  0  0  0  0  0  0  0  0
   -3.7742    1.6239   -0.7736 C   0  0  0  0  0  0  0  0  0  0  0  0
   -3.3347    2.9841   -1.2641 C   0  0  0  0  0  0  0  0  0  0  0  0
   -3.1403    0.4089   -1.4379 C   0  0  2  0  0  0  0  0  0  0  0  0
   -3.9255   -0.8036   -1.7201 C   0  0  0  0  0  0  0  0  0  0  0  0
   -3.5365   -2.0800   -1.5754 C   0  0  0  0  0  0  0  0  0  0  0  0
   -1.9697   -2.5038   -0.9881 Cl  0  0  0  0  0  0  0  0  0  0  0  0
   -4.6145   -3.3695   -1.9781 Cl  0  0  0  0  0  0  0  0  0  0  0  0
   -2.8028    0.7465    0.0019 C   0  0  1  0  0  0  0  0  0  0  0  0
   -1.4245    1.1753    0.3532 C   0  0  0  0  0  0  0  0  0  0  0  0
   -0.6239    1.5882   -0.4729 O   0  0  0  0  0  0  0  0  0  0  0  0
   -1.2011    1.0280    1.6838 O   0  0  0  0  0  0  0  0  0  0  0  0
    0.1435    1.2695    2.1118 C   0  0  0  0  0  0  0  0  0  0  0  0
    0.8690   -0.0477    2.2042 C   0  0  0  0  0  0  0  0  0  0  0  0
    0.7404   -0.8547    3.3448 C   0  0  0  0  0  0  0  0  0  0  0  0
    1.3719   -2.0982    3.4084 C   0  0  0  0  0  0  0  0  0  0  0  0
    2.1368   -2.5478    2.3325 C   0  0  0  0  0  0  0  0  0  0  0  0
    2.2788   -1.7500    1.1976 C   0  0  0  0  0  0  0  0  0  0  0  0
    3.0088   -2.2781    0.1558 O   0  0  0  0  0  0  0  0  0  0  0  0
    3.8725   -1.4311   -0.5003 C   0  0  0  0  0  0  0  0  0  0  0  0
    3.8062   -1.4028   -1.8934 C   0  0  0  0  0  0  0  0  0  0  0  0
    4.6808   -0.5879   -2.6131 C   0  0  0  0  0  0  0  0  0  0  0  0
    5.6291    0.1835   -1.9393 C   0  0  0  0  0  0  0  0  0  0  0  0
    5.7089    0.1365   -0.5464 C   0  0  0  0  0  0  0  0  0  0  0  0
    4.8351   -0.6773    0.1760 C   0  0  0  0  0  0  0  0  0  0  0  0
    1.6306   -0.5134    1.1219 C   0  0  0  0  0  0  0  0  0  0  0  0
  1  2  1  0
  2  3  1  0
  2  4  1  0
  4  5  1  1
  5  6  2  3
  6  7  1  0
  6  8  1  0
  4  9  1  0
  9 10  1  6
 10 11  2  0
 10 12  1  0
 12 13  1  0
 13 14  1  0
 14 15  2  0
 15 16  1  0
 16 17  2  0
 17 18  1  0
 18 19  1  0
 19 20  1  0
 20 21  2  0
 21 22  1  0
 22 23  2  0
 23 24  1  0
 24 25  2  0
 18 26  2  0
  9  2  1  0
 26 14  1  0
 25 20  1  0
M  END
