
     RDKit          3D

 15 14  0  0  0  0  0  0  0  0999 V2000
    2.4303   -0.8779   -1.5643 C   0  0  0  0  0  0  0  0  0  0  0  0
    2.0113   -0.3907   -0.1926 C   0  0  0  0  0  0  0  0  0  0  0  0
    0.7706    0.2827   -0.3156 O   0  0  0  0  0  0  0  0  0  0  0  0
   -0.2024    0.4477    0.9616 P   0  0  0  0  0  5  0  0  0  0  0  0
    0.6086    0.8344    2.6733 S   0  0  0  0  0  0  0  0  0  0  0  0
   -1.1553   -0.8494    0.8577 O   0  0  0  0  0  0  0  0  0  0  0  0
   -0.6415   -2.1454    1.0929 C   0  0  0  0  0  0  0  0  0  0  0  0
   -1.8019   -3.0850    1.3508 C   0  0  0  0  0  0  0  0  0  0  0  0
   -1.2255    1.5666    0.4090 O   0  0  0  0  0  0  0  0  0  0  0  0
   -0.6931    2.8067   -0.0355 C   0  0  2  0  0  0  0  0  0  0  0  0
   -1.1781    4.0450    1.1761 Cl  0  0  0  0  0  0  0  0  0  0  0  0
   -1.1707    3.1623   -1.4735 C   0  0  0  0  0  0  0  0  0  0  0  0
   -0.6454    1.9006   -2.6522 Cl  0  0  0  0  0  0  0  0  0  0  0  0
   -0.4500    4.7180   -2.0306 Cl  0  0  0  0  0  0  0  0  0  0  0  0
   -2.9606    3.2899   -1.5918 Cl  0  0  0  0  0  0  0  0  0  0  0  0
  1  2  1  0
  2  3  1  0
  3  4  1  0
  4  5  2  0
  4  6  1  0
  6  7  1  0
  7  8  1  0
  4  9  1  0
  9 10  1  0
 10 11  1  1
 10 12  1  0
 12 13  1  0
 12 14  1  0
 12 15  1  0
M  END
