
     RDKit          3D

 18 18  0  0  0  0  0  0  0  0999 V2000
    4.4832    1.4147    0.2027 C   0  0  0  0  0  0  0  0  0  0  0  0
    3.7323    1.4777   -1.1206 C   0  0  0  0  0  0  0  0  0  0  0  0
    2.5658    0.4964   -1.2149 C   0  0  0  0  0  0  0  0  0  0  0  0
    1.2065    0.9168   -0.0909 S   0  0  0  0  0  0  0  0  0  0  0  0
   -0.1658   -0.6172   -0.4376 P   0  0  1  0  0  5  0  0  0  0  0  0
   -0.5387   -0.6850   -1.8932 O   0  0  0  0  0  0  0  0  0  0  0  0
    0.4921   -2.0093    0.0666 O   0  0  0  0  0  0  0  0  0  0  0  0
   -0.2287   -3.1980   -0.2108 C   0  0  0  0  0  0  0  0  0  0  0  0
    0.4962   -4.3638    0.4289 C   0  0  0  0  0  0  0  0  0  0  0  0
   -1.4371   -0.4887    0.5456 O   0  0  0  0  0  0  0  0  0  0  0  0
   -2.3248    0.5514    0.5685 C   0  0  0  0  0  0  0  0  0  0  0  0
   -2.4719    1.4507   -0.4887 C   0  0  0  0  0  0  0  0  0  0  0  0
   -3.4037    2.4896   -0.3998 C   0  0  0  0  0  0  0  0  0  0  0  0
   -4.1907    2.6247    0.7425 C   0  0  0  0  0  0  0  0  0  0  0  0
   -5.4478    4.0315    0.8534 Br  0  0  0  0  0  0  0  0  0  0  0  0
   -4.0606    1.7290    1.7998 C   0  0  0  0  0  0  0  0  0  0  0  0
   -3.1297    0.6927    1.7083 C   0  0  0  0  0  0  0  0  0  0  0  0
   -2.9929   -0.4030    3.0384 Cl  0  0  0  0  0  0  0  0  0  0  0  0
  1  2  1  0
  2  3  1  0
  3  4  1  0
  4  5  1  0
  5  6  2  0
  5  7  1  1
  7  8  1  0
  8  9  1  0
  5 10  1  0
 10 11  1  0
 11 12  2  0
 12 13  1  0
 13 14  2  0
 14 15  1  0
 14 16  1  0
 16 17  2  0
 17 18  1  0
 17 11  1  0
M  END
