
     RDKit          3D

 11 10  0  0  0  0  0  0  0  0999 V2000
    2.0440   -0.0214    1.6145 C   0  0  0  0  0  0  0  0  0  0  0  0
    2.0093   -0.9021    0.3638 C   0  0  1  0  0  0  0  0  0  0  0  0
    0.5893   -1.0403   -0.2258 C   0  0  0  0  0  0  0  0  0  0  0  0
   -0.0764    0.2486   -0.7139 C   0  0  0  0  0  0  0  0  0  0  0  0
   -1.4928   -0.0123   -1.1511 C   0  0  0  0  0  0  0  0  0  0  0  0
   -2.6248    0.2537   -0.4704 C   0  0  0  0  0  0  0  0  0  0  0  0
   -2.6830    0.8340    0.9155 C   0  0  0  0  0  0  0  0  0  0  0  0
   -3.9722   -0.0391   -1.0775 C   0  0  0  0  0  0  0  0  0  0  0  0
    3.0850   -0.5285   -0.6670 C   0  0  0  0  0  0  0  0  0  0  0  0
    3.0856    0.9133   -1.1071 C   0  0  0  0  0  0  0  0  0  0  0  0
    2.9908    1.2568   -2.2816 O   0  0  0  0  0  0  0  0  0  0  0  0
  2  1  1  1
  2  3  1  0
  3  4  1  0
  4  5  1  0
  5  6  2  3
  6  7  1  0
  6  8  1  0
  2  9  1  0
  9 10  1  0
 10 11  2  0
M  END
