
     RDKit          3D

 26 27  0  0  0  0  0  0  0  0999 V2000
   -3.5335   -2.3722   -3.2722 N   0  0  0  0  0  0  0  0  0  0  0  0
   -2.8655   -1.8706   -2.4656 C   0  0  0  0  0  0  0  0  0  0  0  0
   -2.1183   -1.2251   -1.4274 C   0  0  0  0  0  0  0  0  0  0  0  0
   -0.7815   -1.2529   -1.4579 N   0  0  0  0  0  0  0  0  0  0  0  0
   -0.4005   -0.5615   -0.3488 N   0  0  0  0  0  0  0  0  0  0  0  0
    0.9688   -0.3248   -0.1023 C   0  0  0  0  0  0  0  0  0  0  0  0
    1.4546    0.9843    0.0348 C   0  0  0  0  0  0  0  0  0  0  0  0
    0.4838    2.3969   -0.2016 Cl  0  0  0  0  0  0  0  0  0  0  0  0
    2.8181    1.2035    0.2717 C   0  0  0  0  0  0  0  0  0  0  0  0
    3.7151    0.1306    0.3687 C   0  0  0  0  0  0  0  0  0  0  0  0
    5.1874    0.3770    0.5956 C   0  0  0  0  0  0  0  0  0  0  0  0
    5.8649    0.5476   -0.5703 F   0  0  0  0  0  0  0  0  0  0  0  0
    5.8019   -0.6478    1.2464 F   0  0  0  0  0  0  0  0  0  0  0  0
    5.4269    1.4903    1.3406 F   0  0  0  0  0  0  0  0  0  0  0  0
    3.2245   -1.1720    0.2059 C   0  0  0  0  0  0  0  0  0  0  0  0
    1.8628   -1.4044   -0.0273 C   0  0  0  0  0  0  0  0  0  0  0  0
    1.3675   -3.0617   -0.0956 Cl  0  0  0  0  0  0  0  0  0  0  0  0
   -1.4982   -0.1572    0.4137 C   0  0  0  0  0  0  0  0  0  0  0  0
   -1.4217    0.4602    1.6191 N   0  0  0  0  0  0  0  0  0  0  0  0
   -2.6058   -0.5489   -0.3015 C   0  0  0  0  0  0  0  0  0  0  0  0
   -4.3182   -0.3059    0.1426 S   0  0  0  0  0  4  0  0  0  0  0  0
   -4.3407    0.0008    1.6169 O   0  0  0  0  0  0  0  0  0  0  0  0
   -4.5783    1.2147   -0.8158 C   0  0  0  0  0  0  0  0  0  0  0  0
   -3.7580    2.2261   -0.4391 F   0  0  0  0  0  0  0  0  0  0  0  0
   -5.8527    1.6669   -0.7016 F   0  0  0  0  0  0  0  0  0  0  0  0
   -4.3582    0.9997   -2.1397 F   0  0  0  0  0  0  0  0  0  0  0  0
  1  2  3  0
  2  3  1  0
  3  4  2  0
  4  5  1  0
  5  6  1  0
  6  7  2  0
  7  8  1  0
  7  9  1  0
  9 10  2  0
 10 11  1  0
 11 12  1  0
 11 13  1  0
 11 14  1  0
 10 15  1  0
 15 16  2  0
 16 17  1  0
  5 18  1  0
 18 19  1  0
 18 20  2  0
 20 21  1  0
 21 22  2  0
 21 23  1  6
 23 24  1  0
 23 25  1  0
 23 26  1  0
 20  3  1  0
 16  6  1  0
M  END
