
     RDKit          3D

 11 10  0  0  0  0  0  0  0  0999 V2000
    2.4910    1.5908   -0.5192 C   0  0  0  0  0  0  0  0  0  0  0  0
    2.7318    0.1643   -0.1076 C   0  0  0  0  0  0  0  0  0  0  0  0
    1.8140   -0.8207   -0.1625 C   0  0  0  0  0  0  0  0  0  0  0  0
    0.4018   -0.7284   -0.6780 C   0  0  0  0  0  0  0  0  0  0  0  0
   -0.5978   -0.5923    0.4778 C   0  0  0  0  0  0  0  0  0  0  0  0
   -2.0830   -0.5831    0.0493 C   0  0  1  0  0  0  0  0  0  0  0  0
   -2.9723   -0.6003    1.3024 C   0  0  0  0  0  0  0  0  0  0  0  0
   -2.3910    0.5523   -0.8992 C   0  0  0  0  0  0  0  0  0  0  0  0
   -3.0913    1.6687   -0.6518 C   0  0  0  0  0  0  0  0  0  0  0  0
   -2.3622   -1.7791   -0.6844 O   0  0  0  0  0  0  0  0  0  0  0  0
    4.1216   -0.1073    0.4058 C   0  0  0  0  0  0  0  0  0  0  0  0
  1  2  1  0
  2  3  2  3
  3  4  1  0
  4  5  1  0
  5  6  1  0
  6  7  1  1
  6  8  1  0
  8  9  2  0
  6 10  1  0
  2 11  1  0
M  END
