
     RDKit          3D

 21 21  0  0  0  0  0  0  0  0999 V2000
   -4.0793   -3.7370   -1.7938 C   0  0  0  0  0  0  0  0  0  0  0  0
   -4.1413   -2.5443   -0.8605 C   0  0  0  0  0  0  0  0  0  0  0  0
   -2.7524   -2.0039   -0.5295 C   0  0  0  0  0  0  0  0  0  0  0  0
   -2.9081   -0.8541    0.2879 O   0  0  0  0  0  0  0  0  0  0  0  0
   -1.7437    0.2816    0.3527 P   0  0  0  0  0  5  0  0  0  0  0  0
   -1.4245    1.1869   -1.3445 S   0  0  0  0  0  0  0  0  0  0  0  0
   -2.4700    1.2978    1.4044 O   0  0  0  0  0  0  0  0  0  0  0  0
   -3.8250    1.6652    1.2002 C   0  0  0  0  0  0  0  0  0  0  0  0
   -4.0682    3.0582    1.7656 C   0  0  0  0  0  0  0  0  0  0  0  0
   -3.2766    4.1296    1.0301 C   0  0  0  0  0  0  0  0  0  0  0  0
   -0.1578   -0.4968    1.5012 S   0  0  0  0  0  0  0  0  0  0  0  0
    0.7077   -1.7315    0.5182 C   0  0  0  0  0  0  0  0  0  0  0  0
    1.5756   -1.1151   -0.5630 C   0  0  0  0  0  0  0  0  0  0  0  0
    1.1838   -1.1741   -1.7338 O   0  0  0  0  0  0  0  0  0  0  0  0
    2.8097   -0.5633   -0.2103 N   0  0  0  0  0  0  0  0  0  0  0  0
    3.2407   -0.3375    1.1726 C   0  0  0  0  0  0  0  0  0  0  0  0
    4.7472   -0.4902    1.3436 C   0  0  0  0  0  0  0  0  0  0  0  0
    5.5089    0.3865    0.3625 C   0  0  0  0  0  0  0  0  0  0  0  0
    5.0708    0.0748   -1.0636 C   0  0  0  0  0  0  0  0  0  0  0  0
    3.5482    0.1687   -1.2599 C   0  0  2  0  0  0  0  0  0  0  0  0
    3.0730    1.6243   -1.3654 C   0  0  0  0  0  0  0  0  0  0  0  0
  1  2  1  0
  2  3  1  0
  3  4  1  0
  4  5  1  0
  5  6  2  0
  5  7  1  0
  7  8  1  0
  8  9  1  0
  9 10  1  0
  5 11  1  0
 11 12  1  0
 12 13  1  0
 13 14  2  0
 13 15  1  0
 15 16  1  0
 16 17  1  0
 17 18  1  0
 18 19  1  0
 19 20  1  0
 20 21  1  1
 20 15  1  0
M  END
