
     RDKit          3D

 12 13  0  0  0  0  0  0  0  0999 V2000
   -0.9866    2.1693   -0.9222 O   0  0  0  0  0  0  0  0  0  0  0  0
   -0.7162    1.4922    0.3058 C   0  0  1  0  0  0  0  0  0  0  0  0
   -1.9919    0.7783    0.7573 C   0  0  0  0  0  0  0  0  0  0  0  0
   -2.2413   -0.4675   -0.0880 C   0  0  0  0  0  0  0  0  0  0  0  0
   -1.0981   -1.4657    0.0820 C   0  0  0  0  0  0  0  0  0  0  0  0
    0.2696   -0.8355   -0.0299 C   0  0  0  0  0  0  0  0  0  0  0  0
    1.3855   -1.6644   -0.2245 C   0  0  0  0  0  0  0  0  0  0  0  0
    2.6698   -1.1239   -0.2985 C   0  0  0  0  0  0  0  0  0  0  0  0
    2.8470    0.2502   -0.1716 C   0  0  0  0  0  0  0  0  0  0  0  0
    4.5848    0.9862   -0.2773 Br  0  0  0  0  0  0  0  0  0  0  0  0
    1.7521    1.0877    0.0321 C   0  0  0  0  0  0  0  0  0  0  0  0
    0.4549    0.5529    0.1155 C   0  0  0  0  0  0  0  0  0  0  0  0
  2  1  1  6
  2  3  1  0
  3  4  1  0
  4  5  1  0
  5  6  1  0
  6  7  2  0
  7  8  1  0
  8  9  2  0
  9 10  1  0
  9 11  1  0
 11 12  2  0
 12  2  1  0
 12  6  1  0
M  END
