
     RDKit          3D

 19 20  0  0  0  0  0  0  0  0999 V2000
    1.1099   -2.9298   -0.1455 O   0  0  0  0  0  0  0  0  0  0  0  0
    1.4375   -1.7534   -0.1082 C   0  0  0  0  0  0  0  0  0  0  0  0
    2.8602   -1.2547   -0.2807 C   0  0  2  0  0  0  0  0  0  0  0  0
    4.0271   -2.2696    0.5781 Cl  0  0  0  0  0  0  0  0  0  0  0  0
    2.8129    0.1569    0.2905 C   0  0  1  0  0  0  0  0  0  0  0  0
    3.9049    1.0487   -0.2797 C   0  0  0  0  0  0  0  0  0  0  0  0
    3.7722    2.7088    0.3464 Cl  0  0  0  0  0  0  0  0  0  0  0  0
    1.4005    0.5975   -0.0650 C   0  0  0  0  0  0  0  0  0  0  0  0
    0.6133   -0.6148    0.0089 N   0  0  0  0  0  0  0  0  0  0  0  0
   -0.8084   -0.6042    0.0768 C   0  0  0  0  0  0  0  0  0  0  0  0
   -1.5503   -1.7792    0.2450 C   0  0  0  0  0  0  0  0  0  0  0  0
   -2.9479   -1.7563    0.3092 C   0  0  0  0  0  0  0  0  0  0  0  0
   -3.6356   -0.5517    0.2086 C   0  0  0  0  0  0  0  0  0  0  0  0
   -2.9284    0.6439    0.0497 C   0  0  0  0  0  0  0  0  0  0  0  0
   -3.6562    1.9581   -0.0864 C   0  0  0  0  0  0  0  0  0  0  0  0
   -2.9901    2.9929    0.4988 F   0  0  0  0  0  0  0  0  0  0  0  0
   -3.8324    2.3175   -1.3875 F   0  0  0  0  0  0  0  0  0  0  0  0
   -4.8973    1.9509    0.4737 F   0  0  0  0  0  0  0  0  0  0  0  0
   -1.5211    0.6031   -0.0212 C   0  0  0  0  0  0  0  0  0  0  0  0
  1  2  2  0
  2  3  1  0
  3  4  1  1
  3  5  1  0
  5  6  1  6
  6  7  1  0
  5  8  1  0
  8  9  1  0
  9 10  1  0
 10 11  2  0
 11 12  1  0
 12 13  2  0
 13 14  1  0
 14 15  1  0
 15 16  1  0
 15 17  1  0
 15 18  1  0
 14 19  2  0
  9  2  1  0
 19 10  1  0
M  END
