
     RDKit          3D

 18 18  0  0  0  0  0  0  0  0999 V2000
   -3.5407   -1.6534    0.7120 C   0  0  0  0  0  0  0  0  0  0  0  0
   -2.1699   -1.0340    0.5956 C   0  0  0  0  0  0  0  0  0  0  0  0
   -1.1645   -1.6826    0.8901 O   0  0  0  0  0  0  0  0  0  0  0  0
   -2.0769    0.3763    0.0271 C   0  0  0  0  0  0  0  0  0  0  0  0
   -3.0736    1.3327    0.6437 C   0  0  0  0  0  0  0  0  0  0  0  0
   -3.7539    2.3095   -0.2803 C   0  0  0  0  0  0  0  0  0  0  0  0
   -3.3017    1.3337    1.8524 O   0  0  0  0  0  0  0  0  0  0  0  0
   -0.6802    1.0008    0.1324 C   0  0  1  0  0  0  0  0  0  0  0  0
   -0.0334    1.0387    1.5035 C   0  0  0  0  0  0  0  0  0  0  0  0
    1.3684    0.5774    1.2341 C   0  0  0  0  0  0  0  0  0  0  0  0
    2.2927    0.8069    2.0006 O   0  0  0  0  0  0  0  0  0  0  0  0
    1.4178   -0.0654    0.0221 N   0  0  0  0  0  0  0  0  0  0  0  0
    2.6621   -0.6476   -0.5542 C   0  0  0  0  0  0  0  0  0  0  0  0
    3.5042   -1.3732    0.5214 C   0  0  0  0  0  0  0  0  0  0  0  0
    3.5119    0.4696   -1.1838 C   0  0  0  0  0  0  0  0  0  0  0  0
    2.3521   -1.7085   -1.6362 C   0  0  0  0  0  0  0  0  0  0  0  0
    0.3149    0.2642   -0.7219 C   0  0  0  0  0  0  0  0  0  0  0  0
    0.1254    0.0935   -1.9188 O   0  0  0  0  0  0  0  0  0  0  0  0
  1  2  1  0
  2  3  2  0
  2  4  1  0
  4  5  1  0
  5  6  1  0
  5  7  2  0
  8  4  1  1
  8  9  1  0
  9 10  1  0
 10 11  2  0
 10 12  1  0
 12 13  1  0
 13 14  1  0
 13 15  1  0
 13 16  1  0
 12 17  1  0
 17 18  2  0
 17  8  1  0
M  END
