
     RDKit          3D

 18 20  0  0  0  0  0  0  0  0999 V2000
    0.1978   -0.6768   -3.0762 C   0  0  0  0  0  0  0  0  0  0  0  0
   -0.1849   -0.1250   -1.6966 C   0  0  1  0  0  0  0  0  0  0  0  0
    0.9754   -0.3205   -0.7391 C   0  0  0  0  0  0  0  0  0  0  0  0
    1.0112   -1.1009    0.3231 N   0  0  0  0  0  0  0  0  0  0  0  0
    2.2603   -0.9460    0.8690 C   0  0  0  0  0  0  0  0  0  0  0  0
    2.8217   -1.5360    2.0099 C   0  0  0  0  0  0  0  0  0  0  0  0
    4.1380   -1.2059    2.3574 C   0  0  0  0  0  0  0  0  0  0  0  0
    4.8782   -0.3077    1.5841 C   0  0  0  0  0  0  0  0  0  0  0  0
    4.3333    0.2905    0.4414 C   0  0  0  0  0  0  0  0  0  0  0  0
    3.0196   -0.0570    0.1202 C   0  0  0  0  0  0  0  0  0  0  0  0
    2.1850    0.3206   -0.8985 N   0  0  0  0  0  0  0  0  0  0  0  0
   -0.5870    1.3604   -1.7771 C   0  0  0  0  0  0  0  0  0  0  0  0
   -1.4661    1.5638   -0.5493 C   0  0  0  0  0  0  0  0  0  0  0  0
   -2.3430    0.3093   -0.5363 C   0  0  0  0  0  0  0  0  0  0  0  0
   -2.9910   -0.0522    0.8176 C   0  0  0  0  0  0  0  0  0  0  0  0
   -1.9982   -0.3608    1.9413 C   0  0  0  0  0  0  0  0  0  0  0  0
   -3.9475    1.0545    1.2753 C   0  0  0  0  0  0  0  0  0  0  0  0
   -1.4790   -0.8037   -1.1715 C   0  0  0  0  0  0  0  0  0  0  0  0
  2  1  1  6
  2  3  1  0
  3  4  2  0
  4  5  1  0
  5  6  2  0
  6  7  1  0
  7  8  2  0
  8  9  1  0
  9 10  2  0
 10 11  1  0
  2 12  1  0
 12 13  1  0
 13 14  1  0
 14 15  1  0
 15 16  1  0
 15 17  1  0
 14 18  1  0
 18  2  1  0
 11  3  1  0
 10  5  1  0
M  END
