
     RDKit          3D

 14 15  0  0  0  0  0  0  0  0999 V2000
    3.3345    0.7975    1.0889 C   0  0  0  0  0  0  0  0  0  0  0  0
    2.4758    0.5393   -0.1107 C   0  0  0  0  0  0  0  0  0  0  0  0
    2.8567    0.6328   -1.2681 O   0  0  0  0  0  0  0  0  0  0  0  0
    1.2242    0.1833    0.2815 O   0  0  0  0  0  0  0  0  0  0  0  0
    0.2809   -0.0834   -0.7769 C   0  0  1  0  0  0  0  0  0  0  0  0
    0.4230   -1.5305   -1.2507 C   0  0  0  0  0  0  0  0  0  0  0  0
    0.0242   -2.5143   -0.1666 C   0  0  0  0  0  0  0  0  0  0  0  0
   -1.7567   -2.4327    0.1413 S   0  0  0  0  0  0  0  0  0  0  0  0
   -2.0113   -0.6739    0.2021 C   0  0  0  0  0  0  0  0  0  0  0  0
   -3.2242   -0.3239    0.6971 N   0  0  0  0  0  0  0  0  0  0  0  0
   -3.5247    0.9877    0.7818 C   0  0  0  0  0  0  0  0  0  0  0  0
   -2.6661    1.9937    0.3907 C   0  0  0  0  0  0  0  0  0  0  0  0
   -1.4279    1.6263   -0.1197 C   0  0  0  0  0  0  0  0  0  0  0  0
   -1.0791    0.2685   -0.2311 C   0  0  0  0  0  0  0  0  0  0  0  0
  1  2  1  0
  2  3  2  0
  2  4  1  0
  5  4  1  1
  5  6  1  0
  6  7  1  0
  7  8  1  0
  8  9  1  0
  9 10  2  0
 10 11  1  0
 11 12  2  0
 12 13  1  0
 13 14  2  0
 14  5  1  0
 14  9  1  0
M  END
