
     RDKit          3D

 13 13  0  0  0  0  0  0  0  0999 V2000
    2.6953   -0.4451    0.9508 C   0  0  0  0  0  0  0  0  0  0  0  0
    2.1049    0.0221   -0.3726 C   0  0  2  0  0  0  0  0  0  0  0  0
    0.6394    0.3833   -0.2594 C   0  0  0  0  0  0  0  0  0  0  0  0
   -0.3334   -0.6048   -0.0309 C   0  0  0  0  0  0  0  0  0  0  0  0
   -1.6940   -0.2739    0.0826 C   0  0  0  0  0  0  0  0  0  0  0  0
   -2.0772    1.0680   -0.0509 C   0  0  0  0  0  0  0  0  0  0  0  0
   -1.1206    2.0575   -0.2764 C   0  0  0  0  0  0  0  0  0  0  0  0
    0.2289    1.7178   -0.3781 C   0  0  0  0  0  0  0  0  0  0  0  0
   -2.7251   -1.3527    0.3062 C   0  0  0  0  0  0  0  0  0  0  0  0
   -2.2825   -2.3536    1.1174 F   0  0  0  0  0  0  0  0  0  0  0  0
   -3.1054   -1.9527   -0.8555 F   0  0  0  0  0  0  0  0  0  0  0  0
   -3.8715   -0.8908    0.8804 F   0  0  0  0  0  0  0  0  0  0  0  0
    2.2763   -1.0092   -1.3424 O   0  0  0  0  0  0  0  0  0  0  0  0
  2  1  1  1
  2  3  1  0
  3  4  2  0
  4  5  1  0
  5  6  2  0
  6  7  1  0
  7  8  2  0
  5  9  1  0
  9 10  1  0
  9 11  1  0
  9 12  1  0
  2 13  1  0
  8  3  1  0
M  END
