
     RDKit          3D

 15 16  0  0  0  0  0  0  0  0999 V2000
   -4.1336   -0.5891    0.0866 C   0  0  0  0  0  0  0  0  0  0  0  0
   -2.8856    0.1289    0.1818 N   0  0  0  0  0  0  0  0  0  0  0  0
   -2.4863    0.7833    1.3098 C   0  0  0  0  0  0  0  0  0  0  0  0
   -3.1228    0.9069    2.3453 O   0  0  0  0  0  0  0  0  0  0  0  0
   -1.0894    1.2959    1.1112 C   0  0  0  0  0  0  0  0  0  0  0  0
   -0.7591    0.9379   -0.3358 C   0  0  1  0  0  0  0  0  0  0  0  0
    0.6074    0.2848   -0.5964 C   0  0  2  0  0  0  0  0  0  0  0  0
    0.8614   -1.0113    0.1863 C   0  0  0  0  0  0  0  0  0  0  0  0
    2.1758   -1.6819   -0.2314 C   0  0  0  0  0  0  0  0  0  0  0  0
    3.2332   -0.6956   -0.7315 C   0  0  0  0  0  0  0  0  0  0  0  0
    3.1183    0.6650   -0.0602 C   0  0  0  0  0  0  0  0  0  0  0  0
    1.7417    1.2584   -0.2878 C   0  0  0  0  0  0  0  0  0  0  0  0
    1.5554    2.4720   -0.2038 O   0  0  0  0  0  0  0  0  0  0  0  0
   -1.9008    0.0484   -0.7580 C   0  0  0  0  0  0  0  0  0  0  0  0
   -1.9195   -0.6242   -1.7779 O   0  0  0  0  0  0  0  0  0  0  0  0
  1  2  1  0
  2  3  1  0
  3  4  2  0
  3  5  1  0
  6  5  1  1
  6  7  1  0
  7  8  1  1
  8  9  1  0
  9 10  1  0
 10 11  1  0
 11 12  1  0
 12 13  2  0
  6 14  1  0
 14 15  2  0
 14  2  1  0
 12  7  1  0
M  END
