
     RDKit          3D

  9  8  0  0  0  0  0  0  0  0999 V2000
    0.5072    1.5395   -0.3482 C   0  0  0  0  0  0  0  0  0  0  0  0
    0.3743    0.1232    0.2031 C   0  0  1  0  0  0  0  0  0  0  0  0
   -0.6464   -0.7026   -0.5800 C   0  0  0  0  0  0  0  0  0  0  0  0
   -2.0430   -0.3822   -0.1404 C   0  0  0  0  0  0  0  0  0  0  0  0
   -2.8164    0.3797   -0.6946 O   0  0  0  0  0  0  0  0  0  0  0  0
   -2.3904   -1.0148    0.9953 O   0  0  0  0  0  0  0  0  0  0  0  0
    1.7181   -0.5601    0.1616 C   0  0  0  0  0  0  0  0  0  0  0  0
    2.1180   -1.3407   -0.6853 O   0  0  0  0  0  0  0  0  0  0  0  0
    2.5090   -0.2046    1.1923 O   0  0  0  0  0  0  0  0  0  0  0  0
  2  1  1  6
  2  3  1  0
  3  4  1  0
  4  5  2  0
  4  6  1  0
  2  7  1  0
  7  8  2  0
  7  9  1  0
M  END
