
     RDKit          3D

 12 13  0  0  0  0  0  0  0  0999 V2000
   -1.1919   -2.2809    0.9255 O   0  0  0  0  0  0  0  0  0  0  0  0
   -1.1192   -1.2075   -0.0143 C   0  0  1  0  0  0  0  0  0  0  0  0
   -2.2112   -0.2028    0.3332 C   0  0  0  0  0  0  0  0  0  0  0  0
   -1.9864    1.0714   -0.4556 C   0  0  0  0  0  0  0  0  0  0  0  0
   -0.7136    1.6588   -0.0696 N   0  0  0  0  0  0  0  0  0  0  0  0
    0.4109    0.8122   -0.1156 C   0  0  0  0  0  0  0  0  0  0  0  0
    1.7160    1.3450   -0.1126 C   0  0  0  0  0  0  0  0  0  0  0  0
    2.0058    3.2248   -0.1749 Br  0  0  0  0  0  0  0  0  0  0  0  0
    2.8396    0.5143   -0.0865 C   0  0  0  0  0  0  0  0  0  0  0  0
    2.6789   -0.8673   -0.0462 C   0  0  0  0  0  0  0  0  0  0  0  0
    1.3981   -1.4145   -0.0185 C   0  0  0  0  0  0  0  0  0  0  0  0
    0.2605   -0.5866   -0.0250 C   0  0  0  0  0  0  0  0  0  0  0  0
  2  1  1  1
  2  3  1  0
  3  4  1  0
  4  5  1  0
  5  6  1  0
  6  7  2  0
  7  8  1  0
  7  9  1  0
  9 10  2  0
 10 11  1  0
 11 12  2  0
 12  2  1  0
 12  6  1  0
M  END
