
     RDKit          3D

 19 20  0  0  0  0  0  0  0  0999 V2000
    3.7627    1.6055   -1.5241 C   0  0  0  0  0  0  0  0  0  0  0  0
    3.0414    0.2847   -1.4596 C   0  0  0  0  0  0  0  0  0  0  0  0
    2.6673   -0.2923   -2.4813 O   0  0  0  0  0  0  0  0  0  0  0  0
    2.8473   -0.3359   -0.0778 C   0  0  2  0  0  0  0  0  0  0  0  0
    3.8120   -1.5161    0.0341 C   0  0  0  0  0  0  0  0  0  0  0  0
    1.3765   -0.7371    0.0977 C   0  0  1  0  0  0  0  0  0  0  0  0
    1.0748   -1.6375    1.2924 C   0  0  0  0  0  0  0  0  0  0  0  0
   -0.2596   -1.1487    1.7778 C   0  0  0  0  0  0  0  0  0  0  0  0
   -0.9537   -1.7356    2.5934 O   0  0  0  0  0  0  0  0  0  0  0  0
   -0.4954    0.0741    1.2235 N   0  0  0  0  0  0  0  0  0  0  0  0
   -1.6243    0.9080    1.5736 C   0  0  0  0  0  0  0  0  0  0  0  0
   -2.7804    0.6840    0.6286 C   0  0  0  0  0  0  0  0  0  0  0  0
   -2.8878    1.4305   -0.5537 C   0  0  0  0  0  0  0  0  0  0  0  0
   -3.9419    1.2033   -1.4397 C   0  0  0  0  0  0  0  0  0  0  0  0
   -4.8930    0.2246   -1.1570 C   0  0  0  0  0  0  0  0  0  0  0  0
   -4.7889   -0.5319    0.0088 C   0  0  0  0  0  0  0  0  0  0  0  0
   -3.7357   -0.3072    0.8963 C   0  0  0  0  0  0  0  0  0  0  0  0
    0.5000    0.4622    0.3765 C   0  0  0  0  0  0  0  0  0  0  0  0
    0.6682    1.5777   -0.0926 O   0  0  0  0  0  0  0  0  0  0  0  0
  1  2  1  0
  2  3  2  0
  2  4  1  0
  4  5  1  6
  4  6  1  0
  6  7  1  1
  7  8  1  0
  8  9  2  0
  8 10  1  0
 10 11  1  0
 11 12  1  0
 12 13  2  0
 13 14  1  0
 14 15  2  0
 15 16  1  0
 16 17  2  0
 10 18  1  0
 18 19  2  0
 18  6  1  0
 17 12  1  0
M  END
