
     RDKit          3D

 19 20  0  0  0  0  0  0  0  0999 V2000
   -0.4703    1.8534    1.7932 O   0  0  0  0  0  0  0  0  0  0  0  0
   -1.1209    0.9127    1.3654 C   0  0  0  0  0  0  0  0  0  0  0  0
   -2.5867    0.6506    1.6801 C   0  0  1  0  0  0  0  0  0  0  0  0
   -3.5024    2.1509    1.8280 Cl  0  0  0  0  0  0  0  0  0  0  0  0
   -3.0267   -0.3036    0.5633 C   0  0  1  0  0  0  0  0  0  0  0  0
   -3.4307    0.3566   -0.7630 C   0  0  0  0  0  0  0  0  0  0  0  0
   -5.1664    0.7635   -0.7883 Cl  0  0  0  0  0  0  0  0  0  0  0  0
   -1.7463   -1.1143    0.3679 C   0  0  0  0  0  0  0  0  0  0  0  0
   -0.6765   -0.1647    0.5696 N   0  0  0  0  0  0  0  0  0  0  0  0
    0.6567   -0.3973    0.1316 C   0  0  0  0  0  0  0  0  0  0  0  0
    1.0213   -1.6320   -0.4278 C   0  0  0  0  0  0  0  0  0  0  0  0
    2.3276   -1.8769   -0.8634 C   0  0  0  0  0  0  0  0  0  0  0  0
    3.2987   -0.8876   -0.7518 C   0  0  0  0  0  0  0  0  0  0  0  0
    2.9689    0.3583   -0.2080 C   0  0  0  0  0  0  0  0  0  0  0  0
    4.0081    1.4439   -0.0656 C   0  0  0  0  0  0  0  0  0  0  0  0
    4.4317    1.5935    1.2190 F   0  0  0  0  0  0  0  0  0  0  0  0
    3.5559    2.6658   -0.4610 F   0  0  0  0  0  0  0  0  0  0  0  0
    5.1316    1.2113   -0.8024 F   0  0  0  0  0  0  0  0  0  0  0  0
    1.6501    0.5865    0.2327 C   0  0  0  0  0  0  0  0  0  0  0  0
  1  2  2  0
  2  3  1  0
  3  4  1  6
  3  5  1  0
  5  6  1  6
  6  7  1  0
  5  8  1  0
  8  9  1  0
  9 10  1  0
 10 11  2  0
 11 12  1  0
 12 13  2  0
 13 14  1  0
 14 15  1  0
 15 16  1  0
 15 17  1  0
 15 18  1  0
 14 19  2  0
  9  2  1  0
 19 10  1  0
M  END
