
     RDKit          3D

 11 11  0  0  0  0  0  0  0  0999 V2000
   -3.6488    0.1710    0.2562 C   0  0  0  0  0  0  0  0  0  0  0  0
   -2.9507   -0.3858   -0.9749 C   0  0  0  0  0  0  0  0  0  0  0  0
   -1.5713   -0.9800   -0.6803 C   0  0  0  0  0  0  0  0  0  0  0  0
   -0.5488    0.0630   -0.2111 C   0  0  0  0  0  0  0  0  0  0  0  0
    0.8369   -0.5549   -0.0129 C   0  0  2  0  0  0  0  0  0  0  0  0
    1.9012    0.3671    0.5736 C   0  0  1  0  0  0  0  0  0  0  0  0
    3.1708   -0.3212    0.1001 C   0  0  0  0  0  0  0  0  0  0  0  0
    2.7418   -0.9177   -1.2085 C   0  0  0  0  0  0  0  0  0  0  0  0
    3.4897   -1.3196   -2.0840 O   0  0  0  0  0  0  0  0  0  0  0  0
    1.3787   -0.9763   -1.2707 O   0  0  0  0  0  0  0  0  0  0  0  0
    1.8469    1.8116    0.0697 C   0  0  0  0  0  0  0  0  0  0  0  0
  1  2  1  0
  2  3  1  0
  3  4  1  0
  5  4  1  6
  5  6  1  0
  6  7  1  0
  7  8  1  0
  8  9  2  0
  8 10  1  0
  6 11  1  6
 10  5  1  0
M  END
