
     RDKit          3D

 22 24  0  0  0  0  0  0  0  0999 V2000
   -1.9589    1.5417    1.1178 C   0  0  0  0  0  0  0  0  0  0  0  0
   -1.6227    1.1781   -0.3444 C   0  0  0  0  0  0  0  0  0  0  0  0
   -2.9056    1.3143   -1.1802 C   0  0  0  0  0  0  0  0  0  0  0  0
   -0.5657    2.1823   -0.8666 C   0  0  0  0  0  0  0  0  0  0  0  0
    0.8063    1.5607   -0.5994 C   0  0  0  0  0  0  0  0  0  0  0  0
    0.5564    0.1512   -0.0349 C   0  0  2  0  0  0  0  0  0  0  0  0
    1.6382   -0.8568   -0.4654 C   0  0  0  0  0  0  0  0  0  0  0  0
    2.9812   -0.5729    0.1700 C   0  0  0  0  0  0  0  0  0  0  0  0
    3.2238   -0.9268    1.5053 C   0  0  0  0  0  0  0  0  0  0  0  0
    4.4590   -0.6532    2.0969 C   0  0  0  0  0  0  0  0  0  0  0  0
    5.4571   -0.0243    1.3563 C   0  0  0  0  0  0  0  0  0  0  0  0
    6.9779    0.3146    2.0861 Cl  0  0  0  0  0  0  0  0  0  0  0  0
    5.2313    0.3320    0.0290 C   0  0  0  0  0  0  0  0  0  0  0  0
    3.9963    0.0581   -0.5629 C   0  0  0  0  0  0  0  0  0  0  0  0
   -0.8893   -0.1983   -0.4989 C   0  0  2  0  0  0  0  0  0  0  0  0
   -0.7999   -0.5962   -1.8743 O   0  0  0  0  0  0  0  0  0  0  0  0
   -1.4354   -1.3959    0.3186 C   0  0  0  0  0  0  0  0  0  0  0  0
   -2.8348   -1.7244    0.1447 N   0  0  0  0  0  0  0  0  0  0  0  0
   -3.8121   -1.7012    1.0950 C   0  0  0  0  0  0  0  0  0  0  0  0
   -4.9363   -2.1492    0.5866 N   0  0  0  0  0  0  0  0  0  0  0  0
   -4.5807   -2.4802   -0.6891 C   0  0  0  0  0  0  0  0  0  0  0  0
   -3.3016   -2.2592   -0.9983 N   0  0  0  0  0  0  0  0  0  0  0  0
  1  2  1  0
  2  3  1  0
  2  4  1  0
  4  5  1  0
  5  6  1  0
  6  7  1  6
  7  8  1  0
  8  9  2  0
  9 10  1  0
 10 11  2  0
 11 12  1  0
 11 13  1  0
 13 14  2  0
  6 15  1  0
 15 16  1  6
 15 17  1  0
 17 18  1  0
 18 19  1  0
 19 20  2  0
 20 21  1  0
 21 22  2  0
 15  2  1  0
 22 18  1  0
 14  8  1  0
M  END
