
     RDKit          3D

 24 25  0  0  0  0  0  0  0  0999 V2000
   -5.7552    0.4162    1.5556 C   0  0  0  0  0  0  0  0  0  0  0  0
   -4.4191    0.3523    2.2715 C   0  0  0  0  0  0  0  0  0  0  0  0
   -3.3520    0.6486    1.3568 O   0  0  0  0  0  0  0  0  0  0  0  0
   -2.8644   -0.4056    0.6394 C   0  0  0  0  0  0  0  0  0  0  0  0
   -3.3038   -1.5486    0.7028 O   0  0  0  0  0  0  0  0  0  0  0  0
   -1.7574    0.0430   -0.3099 C   0  0  1  0  0  0  0  0  0  0  0  0
   -2.3440    0.6515   -1.3975 F   0  0  0  0  0  0  0  0  0  0  0  0
   -0.8183    1.0224    0.3907 C   0  0  0  0  0  0  0  0  0  0  0  0
   -0.9075    2.4705   -0.0122 C   0  0  0  0  0  0  0  0  0  0  0  0
   -0.0293    0.6513    1.2622 O   0  0  0  0  0  0  0  0  0  0  0  0
   -0.9873   -1.1711   -0.8518 C   0  0  2  0  0  0  0  0  0  0  0  0
   -0.4619   -2.1822    0.1706 C   0  0  0  0  0  0  0  0  0  0  0  0
    0.9617   -2.4237   -0.2350 C   0  0  0  0  0  0  0  0  0  0  0  0
    1.6840   -3.2744    0.2613 O   0  0  0  0  0  0  0  0  0  0  0  0
    1.2912   -1.5459   -1.2235 N   0  0  0  0  0  0  0  0  0  0  0  0
    2.6307   -1.4152   -1.7572 C   0  0  0  0  0  0  0  0  0  0  0  0
    3.4349   -0.3847   -0.9996 C   0  0  0  0  0  0  0  0  0  0  0  0
    3.4678    0.9505   -1.4280 C   0  0  0  0  0  0  0  0  0  0  0  0
    4.1918    1.9056   -0.7130 C   0  0  0  0  0  0  0  0  0  0  0  0
    4.8816    1.5385    0.4408 C   0  0  0  0  0  0  0  0  0  0  0  0
    4.8457    0.2176    0.8832 C   0  0  0  0  0  0  0  0  0  0  0  0
    4.1240   -0.7398    0.1691 C   0  0  0  0  0  0  0  0  0  0  0  0
    0.2569   -0.7341   -1.5775 C   0  0  0  0  0  0  0  0  0  0  0  0
    0.2991    0.1929   -2.3729 O   0  0  0  0  0  0  0  0  0  0  0  0
  1  2  1  0
  2  3  1  0
  3  4  1  0
  4  5  2  0
  4  6  1  0
  6  7  1  6
  6  8  1  0
  8  9  1  0
  8 10  2  0
  6 11  1  0
 11 12  1  1
 12 13  1  0
 13 14  2  0
 13 15  1  0
 15 16  1  0
 16 17  1  0
 17 18  2  0
 18 19  1  0
 19 20  2  0
 20 21  1  0
 21 22  2  0
 15 23  1  0
 23 24  2  0
 23 11  1  0
 22 17  1  0
M  END
