
     RDKit          3D

 22 24  0  0  0  0  0  0  0  0999 V2000
   -0.5868   -3.2857   -0.1912 C   0  0  0  0  0  0  0  0  0  0  0  0
   -1.3432   -1.9982    0.2370 C   0  0  0  0  0  0  0  0  0  0  0  0
   -2.8081   -2.4202    0.4230 C   0  0  0  0  0  0  0  0  0  0  0  0
   -0.7146   -1.4895    1.5558 C   0  0  0  0  0  0  0  0  0  0  0  0
    0.2756   -0.3778    1.1817 C   0  0  0  0  0  0  0  0  0  0  0  0
    0.2847   -0.3034   -0.3489 C   0  0  2  0  0  0  0  0  0  0  0  0
    0.7275    1.0469   -0.9263 C   0  0  0  0  0  0  0  0  0  0  0  0
    2.2093    1.2931   -0.7538 C   0  0  0  0  0  0  0  0  0  0  0  0
    3.1252    0.7876   -1.6873 C   0  0  0  0  0  0  0  0  0  0  0  0
    4.4956    0.9995   -1.5196 C   0  0  0  0  0  0  0  0  0  0  0  0
    4.9559    1.7158   -0.4171 C   0  0  0  0  0  0  0  0  0  0  0  0
    6.6444    1.9740   -0.2096 Cl  0  0  0  0  0  0  0  0  0  0  0  0
    4.0578    2.2229    0.5187 C   0  0  0  0  0  0  0  0  0  0  0  0
    2.6873    2.0117    0.3512 C   0  0  0  0  0  0  0  0  0  0  0  0
   -1.1256   -0.8019   -0.7603 C   0  0  1  0  0  0  0  0  0  0  0  0
   -1.0517   -1.2914   -2.1164 O   0  0  0  0  0  0  0  0  0  0  0  0
   -2.2481    0.2783   -0.8229 C   0  0  0  0  0  0  0  0  0  0  0  0
   -2.4440    1.2028    0.2647 N   0  0  0  0  0  0  0  0  0  0  0  0
   -2.3168    2.5607    0.2223 C   0  0  0  0  0  0  0  0  0  0  0  0
   -2.6701    3.0769    1.3760 N   0  0  0  0  0  0  0  0  0  0  0  0
   -3.0729    1.9844    2.0852 C   0  0  0  0  0  0  0  0  0  0  0  0
   -2.9759    0.8210    1.4381 N   0  0  0  0  0  0  0  0  0  0  0  0
  1  2  1  0
  2  3  1  0
  2  4  1  0
  4  5  1  0
  5  6  1  0
  6  7  1  1
  7  8  1  0
  8  9  2  0
  9 10  1  0
 10 11  2  0
 11 12  1  0
 11 13  1  0
 13 14  2  0
  6 15  1  0
 15 16  1  6
 15 17  1  0
 17 18  1  0
 18 19  1  0
 19 20  2  0
 20 21  1  0
 21 22  2  0
 15  2  1  0
 22 18  1  0
 14  8  1  0
M  END
