
     RDKit          3D

 16 16  0  0  0  0  0  0  0  0999 V2000
    4.5855   -0.0006    0.1711 C   0  0  0  0  0  0  0  0  0  0  0  0
    3.7188    0.3493   -1.0288 C   0  0  0  0  0  0  0  0  0  0  0  0
    2.8629    1.5512   -0.7528 C   0  0  0  0  0  0  0  0  0  0  0  0
    1.5245    1.6119   -0.6604 C   0  0  0  0  0  0  0  0  0  0  0  0
    0.5375    0.4870   -0.8079 C   0  0  0  0  0  0  0  0  0  0  0  0
   -0.2886    0.2531    0.4652 C   0  0  1  0  0  0  0  0  0  0  0  0
   -1.3800   -0.8415    0.3575 C   0  0  2  0  0  0  0  0  0  0  0  0
   -0.6136   -2.1509    0.5676 C   0  0  0  0  0  0  0  0  0  0  0  0
    0.3489   -1.8444    1.7071 C   0  0  0  0  0  0  0  0  0  0  0  0
    0.5774   -0.3609    1.5546 C   0  0  0  0  0  0  0  0  0  0  0  0
    1.3595    0.2675    2.2573 O   0  0  0  0  0  0  0  0  0  0  0  0
   -2.2187   -0.8629   -0.9169 C   0  0  0  0  0  0  0  0  0  0  0  0
   -3.0733    0.3745   -1.0336 C   0  0  0  0  0  0  0  0  0  0  0  0
   -2.7794    1.3476   -1.7128 O   0  0  0  0  0  0  0  0  0  0  0  0
   -4.1841    0.2589   -0.2567 O   0  0  0  0  0  0  0  0  0  0  0  0
   -5.0389    1.4029   -0.2935 C   0  0  0  0  0  0  0  0  0  0  0  0
  1  2  1  0
  2  3  1  0
  3  4  2  0
  4  5  1  0
  6  5  1  6
  6  7  1  0
  7  8  1  0
  8  9  1  0
  9 10  1  0
 10 11  2  0
  7 12  1  6
 12 13  1  0
 13 14  2  0
 13 15  1  0
 15 16  1  0
 10  6  1  0
M  END
