
     RDKit          3D

 19 20  0  0  0  0  0  0  0  0999 V2000
    0.8191   -0.0043    0.5237 C   0  0  1  0  0  0  0  0  0  0  0  0
   -0.6672   -0.4638    0.4457 C   0  0  1  0  0  0  0  0  0  0  0  0
   -1.5695    0.5796   -0.2134 C   0  0  0  0  0  0  0  0  0  0  0  0
   -1.7801    0.6965   -1.4139 O   0  0  0  0  0  0  0  0  0  0  0  0
   -2.1143    1.3911    0.7451 O   0  0  0  0  0  0  0  0  0  0  0  0
   -2.9339    2.4653    0.2633 C   0  0  0  0  0  0  0  0  0  0  0  0
   -2.0707    3.6635   -0.0854 C   0  0  0  0  0  0  0  0  0  0  0  0
   -0.8155   -1.8793   -0.1197 C   0  0  0  0  0  0  0  0  0  0  0  0
   -0.9290   -2.9629    0.7734 C   0  0  0  0  0  0  0  0  0  0  0  0
   -1.0444   -4.2717    0.3006 C   0  0  0  0  0  0  0  0  0  0  0  0
   -1.0418   -4.5085   -1.0669 C   0  0  0  0  0  0  0  0  0  0  0  0
   -1.1512   -5.7640   -1.5202 F   0  0  0  0  0  0  0  0  0  0  0  0
   -0.9234   -3.4612   -1.9695 C   0  0  0  0  0  0  0  0  0  0  0  0
   -0.8072   -2.1512   -1.4981 C   0  0  0  0  0  0  0  0  0  0  0  0
    1.4718    0.2547   -0.8532 C   0  0  0  0  0  0  0  0  0  0  0  0
    2.7723    1.0637   -0.7730 C   0  0  0  0  0  0  0  0  0  0  0  0
    3.3800    0.9973    0.6187 C   0  0  0  0  0  0  0  0  0  0  0  0
    2.3861    1.4889    1.6733 C   0  0  0  0  0  0  0  0  0  0  0  0
    0.9844    1.1891    1.3696 N   0  0  0  0  0  0  0  0  0  0  0  0
  1  2  1  0
  2  3  1  6
  3  4  2  0
  3  5  1  0
  5  6  1  0
  6  7  1  0
  2  8  1  0
  8  9  2  0
  9 10  1  0
 10 11  2  0
 11 12  1  0
 11 13  1  0
 13 14  2  0
  1 15  1  6
 15 16  1  0
 16 17  1  0
 17 18  1  0
 18 19  1  0
 19  1  1  0
 14  8  1  0
M  END
