
     RDKit          3D

 11 11  0  0  0  0  0  0  0  0999 V2000
   -2.7077   -0.9162   -0.5236 C   0  0  0  0  0  0  0  0  0  0  0  0
   -2.0088   -0.4383    0.7436 C   0  0  2  0  0  0  0  0  0  0  0  0
   -2.8808    0.4396    1.4551 O   0  0  0  0  0  0  0  0  0  0  0  0
   -0.7071    0.2622    0.4247 C   0  0  0  0  0  0  0  0  0  0  0  0
   -0.6599    1.6352    0.1495 C   0  0  0  0  0  0  0  0  0  0  0  0
    0.5483    2.2554   -0.1673 C   0  0  0  0  0  0  0  0  0  0  0  0
    1.7251    1.5086   -0.2223 C   0  0  0  0  0  0  0  0  0  0  0  0
    1.7072    0.1300    0.0290 C   0  0  0  0  0  0  0  0  0  0  0  0
    2.9942   -0.6519    0.0053 C   0  0  0  0  0  0  0  0  0  0  0  0
    2.7677   -2.0072   -0.3627 O   0  0  0  0  0  0  0  0  0  0  0  0
    0.4861   -0.4777    0.3612 C   0  0  0  0  0  0  0  0  0  0  0  0
  2  1  1  6
  2  3  1  0
  2  4  1  0
  4  5  2  0
  5  6  1  0
  6  7  2  0
  7  8  1  0
  8  9  1  0
  9 10  1  0
  8 11  2  0
 11  4  1  0
M  END
