
     RDKit          3D

 25 27  0  0  0  0  0  0  0  0999 V2000
   -3.1648   -0.2885   -2.3131 C   0  0  0  0  0  0  0  0  0  0  0  0
   -3.5924    0.6131   -1.1365 C   0  0  0  0  0  0  0  0  0  0  0  0
   -2.7743    1.9168   -1.1837 C   0  0  0  0  0  0  0  0  0  0  0  0
   -5.0805    0.9731   -1.3696 C   0  0  0  0  0  0  0  0  0  0  0  0
   -3.4439   -0.1283    0.2403 C   0  0  2  0  0  0  0  0  0  0  0  0
   -4.1831    0.5818    1.2629 O   0  0  0  0  0  0  0  0  0  0  0  0
   -2.0053   -0.3753    0.7864 C   0  0  2  0  0  0  0  0  0  0  0  0
   -1.1056   -0.7955   -0.2425 O   0  0  0  0  0  0  0  0  0  0  0  0
    0.2258   -0.5135   -0.1190 C   0  0  0  0  0  0  0  0  0  0  0  0
    0.8850   -0.1055    1.0379 C   0  0  0  0  0  0  0  0  0  0  0  0
    2.2631    0.1503    1.0105 C   0  0  0  0  0  0  0  0  0  0  0  0
    3.0127   -0.0031   -0.1662 C   0  0  0  0  0  0  0  0  0  0  0  0
    4.4600    0.2639   -0.1863 C   0  0  0  0  0  0  0  0  0  0  0  0
    5.3680   -0.7034   -0.6486 C   0  0  0  0  0  0  0  0  0  0  0  0
    6.7426   -0.4514   -0.6674 C   0  0  0  0  0  0  0  0  0  0  0  0
    7.2328    0.7743   -0.2245 C   0  0  0  0  0  0  0  0  0  0  0  0
    6.3503    1.7473    0.2375 C   0  0  0  0  0  0  0  0  0  0  0  0
    4.9761    1.4932    0.2568 C   0  0  0  0  0  0  0  0  0  0  0  0
    2.3378   -0.4294   -1.3182 C   0  0  0  0  0  0  0  0  0  0  0  0
    0.9632   -0.6846   -1.2918 C   0  0  0  0  0  0  0  0  0  0  0  0
   -2.0589   -1.3975    1.8380 N   0  0  0  0  0  0  0  0  0  0  0  0
   -2.1786   -1.1819    3.1790 C   0  0  0  0  0  0  0  0  0  0  0  0
   -2.1608   -2.3298    3.8156 N   0  0  0  0  0  0  0  0  0  0  0  0
   -2.0596   -3.2396    2.8019 C   0  0  0  0  0  0  0  0  0  0  0  0
   -2.0059   -2.7224    1.5725 N   0  0  0  0  0  0  0  0  0  0  0  0
  1  2  1  0
  2  3  1  0
  2  4  1  0
  2  5  1  0
  5  6  1  1
  5  7  1  0
  7  8  1  6
  8  9  1  0
  9 10  2  0
 10 11  1  0
 11 12  2  0
 12 13  1  0
 13 14  2  0
 14 15  1  0
 15 16  2  0
 16 17  1  0
 17 18  2  0
 12 19  1  0
 19 20  2  0
  7 21  1  0
 21 22  1  0
 22 23  2  0
 23 24  1  0
 24 25  2  0
 20  9  1  0
 25 21  1  0
 18 13  1  0
M  END
