
     RDKit          3D

 10 10  0  0  0  0  0  0  0  0999 V2000
    3.5895   -0.4244   -0.4785 C   0  0  0  0  0  0  0  0  0  0  0  0
    2.1127   -0.2357   -0.2998 C   0  0  0  0  0  0  0  0  0  0  0  0
    1.2433   -1.3280   -0.3836 C   0  0  0  0  0  0  0  0  0  0  0  0
   -0.1294   -1.1585   -0.1845 C   0  0  0  0  0  0  0  0  0  0  0  0
   -0.6608    0.1029    0.1182 C   0  0  0  0  0  0  0  0  0  0  0  0
    0.2170    1.1931    0.2103 C   0  0  0  0  0  0  0  0  0  0  0  0
    1.5901    1.0240    0.0107 C   0  0  0  0  0  0  0  0  0  0  0  0
   -2.1466    0.3105    0.3082 C   0  0  1  0  0  0  0  0  0  0  0  0
   -2.8434    0.5859   -1.0189 C   0  0  0  0  0  0  0  0  0  0  0  0
   -2.7318   -0.8414    0.9132 O   0  0  0  0  0  0  0  0  0  0  0  0
  1  2  1  0
  2  3  2  0
  3  4  1  0
  4  5  2  0
  5  6  1  0
  6  7  2  0
  5  8  1  0
  8  9  1  6
  8 10  1  0
  7  2  1  0
M  END
