
     RDKit          3D

 26 28  0  0  0  0  0  0  0  0999 V2000
   -2.6073   -0.8147   -0.9034 C   0  0  0  0  0  0  0  0  0  0  0  0
   -3.5084   -0.4900    0.2663 C   0  0  0  0  0  0  0  0  0  0  0  0
   -4.8020   -1.2680    0.2532 C   0  0  0  0  0  0  0  0  0  0  0  0
   -3.4599    0.9358    0.7936 C   0  0  1  0  0  0  0  0  0  0  0  0
   -4.6814    1.6229    1.2444 C   0  0  0  0  0  0  0  0  0  0  0  0
   -4.8118    2.4626    2.2833 C   0  0  0  0  0  0  0  0  0  0  0  0
   -6.3405    3.1923    2.6277 Cl  0  0  0  0  0  0  0  0  0  0  0  0
   -3.4882    2.8649    3.3147 Cl  0  0  0  0  0  0  0  0  0  0  0  0
   -2.8930   -0.1969    1.6278 C   0  0  2  0  0  0  0  0  0  0  0  0
   -1.4319   -0.3188    1.8508 C   0  0  0  0  0  0  0  0  0  0  0  0
   -0.8789   -1.4068    1.8891 O   0  0  0  0  0  0  0  0  0  0  0  0
   -0.8502    0.8928    2.0144 O   0  0  0  0  0  0  0  0  0  0  0  0
    0.5747    0.8876    2.1326 C   0  0  0  0  0  0  0  0  0  0  0  0
    1.1606    1.2800    0.8013 C   0  0  0  0  0  0  0  0  0  0  0  0
    1.1694    2.6250    0.3998 C   0  0  0  0  0  0  0  0  0  0  0  0
    1.6687    2.9890   -0.8528 C   0  0  0  0  0  0  0  0  0  0  0  0
    2.1633    2.0127   -1.7160 C   0  0  0  0  0  0  0  0  0  0  0  0
    2.1682    0.6761   -1.3195 C   0  0  0  0  0  0  0  0  0  0  0  0
    2.6283   -0.2522   -2.2250 O   0  0  0  0  0  0  0  0  0  0  0  0
    3.6174   -1.1101   -1.7955 C   0  0  0  0  0  0  0  0  0  0  0  0
    4.7116   -0.6958   -1.0315 C   0  0  0  0  0  0  0  0  0  0  0  0
    5.6949   -1.6176   -0.6702 C   0  0  0  0  0  0  0  0  0  0  0  0
    5.5921   -2.9468   -1.0824 C   0  0  0  0  0  0  0  0  0  0  0  0
    4.5085   -3.3565   -1.8602 C   0  0  0  0  0  0  0  0  0  0  0  0
    3.5247   -2.4358   -2.2234 C   0  0  0  0  0  0  0  0  0  0  0  0
    1.6487    0.3022   -0.0777 C   0  0  0  0  0  0  0  0  0  0  0  0
  1  2  1  0
  2  3  1  0
  2  4  1  0
  4  5  1  1
  5  6  2  3
  6  7  1  0
  6  8  1  0
  4  9  1  0
  9 10  1  6
 10 11  2  0
 10 12  1  0
 12 13  1  0
 13 14  1  0
 14 15  2  0
 15 16  1  0
 16 17  2  0
 17 18  1  0
 18 19  1  0
 19 20  1  0
 20 21  2  0
 21 22  1  0
 22 23  2  0
 23 24  1  0
 24 25  2  0
 18 26  2  0
  9  2  1  0
 26 14  1  0
 25 20  1  0
M  END
