
     RDKit          3D

 19 18  0  0  0  0  0  0  0  0999 V2000
   -3.9814   -1.8550   -3.6216 C   0  0  0  0  0  0  0  0  0  0  0  0
   -3.7699   -1.9229   -2.1213 C   0  0  0  0  0  0  0  0  0  0  0  0
   -3.0856   -0.7429   -1.6711 O   0  0  0  0  0  0  0  0  0  0  0  0
   -1.7257   -0.8090   -1.6569 C   0  0  0  0  0  0  0  0  0  0  0  0
   -1.0579   -1.7707   -2.0098 O   0  0  0  0  0  0  0  0  0  0  0  0
   -1.1363    0.4736   -1.1310 C   0  0  0  0  0  0  0  0  0  0  0  0
   -0.2368    0.1539    0.0603 C   0  0  1  0  0  0  0  0  0  0  0  0
    1.5344    0.2976   -0.3698 S   0  0  0  0  0  0  0  0  0  0  0  0
    2.4993   -0.5802    1.2863 P   0  0  0  0  0  5  0  0  0  0  0  0
    2.6824    0.4459    2.9325 S   0  0  0  0  0  0  0  0  0  0  0  0
    1.7256   -1.9772    1.5715 O   0  0  0  0  0  0  0  0  0  0  0  0
    1.8211   -3.0371    0.6400 C   0  0  0  0  0  0  0  0  0  0  0  0
    3.9236   -1.1604    0.7507 O   0  0  0  0  0  0  0  0  0  0  0  0
    4.9657   -0.2478    0.4546 C   0  0  0  0  0  0  0  0  0  0  0  0
   -0.6314    1.0250    1.2369 C   0  0  0  0  0  0  0  0  0  0  0  0
   -1.4570    0.6661    2.0675 O   0  0  0  0  0  0  0  0  0  0  0  0
   -0.0489    2.2498    1.2008 O   0  0  0  0  0  0  0  0  0  0  0  0
   -0.3943    3.1127    2.2926 C   0  0  0  0  0  0  0  0  0  0  0  0
    0.2824    4.4513    2.0619 C   0  0  0  0  0  0  0  0  0  0  0  0
  1  2  1  0
  2  3  1  0
  3  4  1  0
  4  5  2  0
  4  6  1  0
  7  6  1  6
  7  8  1  0
  8  9  1  0
  9 10  2  0
  9 11  1  0
 11 12  1  0
  9 13  1  0
 13 14  1  0
  7 15  1  0
 15 16  2  0
 15 17  1  0
 17 18  1  0
 18 19  1  0
M  END
