
     RDKit          3D

 27 29  0  0  0  0  0  0  0  0999 V2000
    2.5426    1.1120    1.2843 C   0  0  0  0  0  0  0  0  0  0  0  0
    2.3664   -0.1293    0.3970 C   0  0  2  0  0  0  0  0  0  0  0  0
    3.0300   -1.2251    1.0740 O   0  0  0  0  0  0  0  0  0  0  0  0
    3.1146    0.0190   -0.9503 C   0  0  0  0  0  0  0  0  0  0  0  0
    4.5472    0.2289   -0.8245 N   0  0  0  0  0  0  0  0  0  0  0  0
    5.5219   -0.7023   -0.6420 C   0  0  0  0  0  0  0  0  0  0  0  0
    6.6984   -0.1198   -0.6726 N   0  0  0  0  0  0  0  0  0  0  0  0
    6.3843    1.1918   -0.8859 C   0  0  0  0  0  0  0  0  0  0  0  0
    5.0797    1.4544   -0.9999 N   0  0  0  0  0  0  0  0  0  0  0  0
    0.8525   -0.4838    0.3422 C   0  0  0  0  0  0  0  0  0  0  0  0
    0.3523   -1.2842    1.4086 C   0  0  0  0  0  0  0  0  0  0  0  0
   -0.9783   -1.6975    1.4870 C   0  0  0  0  0  0  0  0  0  0  0  0
   -1.8761   -1.2919    0.5176 C   0  0  0  0  0  0  0  0  0  0  0  0
   -3.1658   -1.7560    0.6139 O   0  0  0  0  0  0  0  0  0  0  0  0
   -4.1791   -0.8351    0.4733 C   0  0  0  0  0  0  0  0  0  0  0  0
   -5.2511   -1.1940   -0.3456 C   0  0  0  0  0  0  0  0  0  0  0  0
   -6.3267   -0.3185   -0.5070 C   0  0  0  0  0  0  0  0  0  0  0  0
   -6.3303    0.9039    0.1645 C   0  0  0  0  0  0  0  0  0  0  0  0
   -7.6560    1.9824   -0.0334 Cl  0  0  0  0  0  0  0  0  0  0  0  0
   -5.2713    1.2555    1.0016 C   0  0  0  0  0  0  0  0  0  0  0  0
   -4.1949    0.3804    1.1640 C   0  0  0  0  0  0  0  0  0  0  0  0
   -1.4382   -0.4873   -0.5319 C   0  0  0  0  0  0  0  0  0  0  0  0
   -0.0936   -0.0421   -0.6227 C   0  0  0  0  0  0  0  0  0  0  0  0
    0.2040    0.9069   -1.7644 C   0  0  0  0  0  0  0  0  0  0  0  0
   -0.9068    1.3803   -2.3956 F   0  0  0  0  0  0  0  0  0  0  0  0
    0.8870    2.0102   -1.3617 F   0  0  0  0  0  0  0  0  0  0  0  0
    0.9498    0.3147   -2.7362 F   0  0  0  0  0  0  0  0  0  0  0  0
  2  1  1  1
  2  3  1  0
  2  4  1  0
  4  5  1  0
  5  6  1  0
  6  7  2  0
  7  8  1  0
  8  9  2  0
  2 10  1  0
 10 11  2  0
 11 12  1  0
 12 13  2  0
 13 14  1  0
 14 15  1  0
 15 16  2  0
 16 17  1  0
 17 18  2  0
 18 19  1  0
 18 20  1  0
 20 21  2  0
 13 22  1  0
 22 23  2  0
 23 24  1  0
 24 25  1  0
 24 26  1  0
 24 27  1  0
  9  5  1  0
 23 10  1  0
 21 15  1  0
M  END
