
     RDKit          3D

 12 12  0  0  0  0  0  0  0  0999 V2000
    4.9372    0.4821    0.4477 C   0  0  0  0  0  0  0  0  0  0  0  0
    3.6947   -0.3532    0.7121 C   0  0  0  0  0  0  0  0  0  0  0  0
    2.4790    0.2007   -0.0306 C   0  0  0  0  0  0  0  0  0  0  0  0
    1.2313   -0.6424    0.2382 C   0  0  0  0  0  0  0  0  0  0  0  0
    0.0140   -0.0881   -0.5055 C   0  0  0  0  0  0  0  0  0  0  0  0
   -1.2315   -0.9332   -0.2348 C   0  0  0  0  0  0  0  0  0  0  0  0
   -2.4589   -0.4648   -1.0252 C   0  0  2  0  0  0  0  0  0  0  0  0
   -3.0449    0.8604   -0.5817 C   0  0  0  0  0  0  0  0  0  0  0  0
   -3.9908    0.4652    0.5265 C   0  0  0  0  0  0  0  0  0  0  0  0
   -4.3990   -0.9145    0.1100 C   0  0  0  0  0  0  0  0  0  0  0  0
   -5.3542   -1.5330    0.5491 O   0  0  0  0  0  0  0  0  0  0  0  0
   -3.5237   -1.4047   -0.8165 O   0  0  0  0  0  0  0  0  0  0  0  0
  1  2  1  0
  2  3  1  0
  3  4  1  0
  4  5  1  0
  5  6  1  0
  7  6  1  1
  7  8  1  0
  8  9  1  0
  9 10  1  0
 10 11  2  0
 10 12  1  0
 12  7  1  0
M  END
