
     RDKit          3D

 10 11  0  0  0  0  0  0  0  0999 V2000
   -1.9184   -1.1546    0.6956 C   0  0  0  0  0  0  0  0  0  0  0  0
   -1.5758    0.3050    0.3942 C   0  0  0  0  0  0  0  0  0  0  0  0
   -2.5499    0.8949   -0.6256 C   0  0  0  0  0  0  0  0  0  0  0  0
   -0.1390    0.4726   -0.0638 C   0  0  2  0  0  0  0  0  0  0  0  0
    0.3239   -0.2484   -1.3172 C   0  0  0  0  0  0  0  0  0  0  0  0
    1.5304   -1.0968   -0.8833 C   0  0  0  0  0  0  0  0  0  0  0  0
    2.0547   -0.3997    0.3507 C   0  0  0  0  0  0  0  0  0  0  0  0
    3.3238   -0.4775    0.7685 C   0  0  0  0  0  0  0  0  0  0  0  0
    0.9843    0.4062    0.9528 C   0  0  1  0  0  0  0  0  0  0  0  0
    0.6089    1.7258    0.3499 C   0  0  0  0  0  0  0  0  0  0  0  0
  1  2  1  0
  2  3  1  0
  4  2  1  1
  4  5  1  0
  5  6  1  0
  6  7  1  0
  7  8  2  0
  7  9  1  0
  9 10  1  6
  9  4  1  0
 10  4  1  0
M  END
