
     RDKit          3D

 26 27  0  0  0  0  0  0  0  0999 V2000
    3.9313    3.1282   -1.7222 N   0  0  0  0  0  0  0  0  0  0  0  0
    3.1362    2.3361   -1.4241 C   0  0  0  0  0  0  0  0  0  0  0  0
    2.2152    1.2939   -1.0789 C   0  0  0  0  0  0  0  0  0  0  0  0
    0.9897    1.6129   -0.6508 N   0  0  0  0  0  0  0  0  0  0  0  0
    0.3729    0.4160   -0.4473 N   0  0  0  0  0  0  0  0  0  0  0  0
   -0.9552    0.3829    0.0351 C   0  0  0  0  0  0  0  0  0  0  0  0
   -1.9594    1.1084   -0.6273 C   0  0  0  0  0  0  0  0  0  0  0  0
   -1.7070    1.9605   -2.1137 Cl  0  0  0  0  0  0  0  0  0  0  0  0
   -3.2743    1.0924   -0.1425 C   0  0  0  0  0  0  0  0  0  0  0  0
   -3.6117    0.3569    1.0011 C   0  0  0  0  0  0  0  0  0  0  0  0
   -5.0247    0.3621    1.5327 C   0  0  0  0  0  0  0  0  0  0  0  0
   -5.3568   -0.8014    2.1559 F   0  0  0  0  0  0  0  0  0  0  0  0
   -5.9580    0.5453    0.5599 F   0  0  0  0  0  0  0  0  0  0  0  0
   -5.2260    1.3505    2.4439 F   0  0  0  0  0  0  0  0  0  0  0  0
   -2.6008   -0.3494    1.6666 C   0  0  0  0  0  0  0  0  0  0  0  0
   -1.2814   -0.3381    1.1939 C   0  0  0  0  0  0  0  0  0  0  0  0
   -0.1133   -1.1459    2.1830 Cl  0  0  0  0  0  0  0  0  0  0  0  0
    1.2054   -0.6568   -0.7785 C   0  0  0  0  0  0  0  0  0  0  0  0
    0.8275   -1.9591   -0.7833 N   0  0  0  0  0  0  0  0  0  0  0  0
    2.4060   -0.0927   -1.1456 C   0  0  0  0  0  0  0  0  0  0  0  0
    3.8919   -0.9489   -1.6528 S   0  0  0  0  0  4  0  0  0  0  0  0
    3.5079   -2.3879   -1.8764 O   0  0  0  0  0  0  0  0  0  0  0  0
    4.7844   -0.7934   -0.0778 C   0  0  0  0  0  0  0  0  0  0  0  0
    4.1107   -1.3471    0.9616 F   0  0  0  0  0  0  0  0  0  0  0  0
    4.9962    0.5096    0.2410 F   0  0  0  0  0  0  0  0  0  0  0  0
    6.0032   -1.3869   -0.1289 F   0  0  0  0  0  0  0  0  0  0  0  0
  1  2  3  0
  2  3  1  0
  3  4  2  0
  4  5  1  0
  5  6  1  0
  6  7  2  0
  7  8  1  0
  7  9  1  0
  9 10  2  0
 10 11  1  0
 11 12  1  0
 11 13  1  0
 11 14  1  0
 10 15  1  0
 15 16  2  0
 16 17  1  0
  5 18  1  0
 18 19  1  0
 18 20  2  0
 20 21  1  0
 21 22  2  0
 21 23  1  1
 23 24  1  0
 23 25  1  0
 23 26  1  0
 20  3  1  0
 16  6  1  0
M  END
