
     RDKit          3D

  9  9  0  0  0  0  0  0  0  0999 V2000
    2.4121    0.4682    0.5940 C   0  0  0  0  0  0  0  0  0  0  0  0
    1.4488    0.5491   -0.5825 C   0  0  2  0  0  0  0  0  0  0  0  0
    0.0383    0.1468   -0.2107 C   0  0  0  0  0  0  0  0  0  0  0  0
   -0.9919    1.0984   -0.2084 C   0  0  0  0  0  0  0  0  0  0  0  0
   -2.2957    0.7325    0.1324 C   0  0  0  0  0  0  0  0  0  0  0  0
   -2.5846   -0.5869    0.4750 C   0  0  0  0  0  0  0  0  0  0  0  0
   -1.5711   -1.5426    0.4778 C   0  0  0  0  0  0  0  0  0  0  0  0
   -0.2674   -1.1786    0.1374 C   0  0  0  0  0  0  0  0  0  0  0  0
    1.9349   -0.2849   -1.6333 O   0  0  0  0  0  0  0  0  0  0  0  0
  2  1  1  1
  2  3  1  0
  3  4  2  0
  4  5  1  0
  5  6  2  0
  6  7  1  0
  7  8  2  0
  2  9  1  0
  8  3  1  0
M  END
