
     RDKit          3D

  6  5  0  0  0  0  0  0  0  0999 V2000
   -1.9595   -1.4733   -0.2448 Cl  0  0  0  0  0  0  0  0  0  0  0  0
   -1.3458    0.1760    0.0368 C   0  0  0  0  0  0  0  0  0  0  0  0
    0.0978    0.3297   -0.4349 C   0  0  1  0  0  0  0  0  0  0  0  0
    0.5439    2.2508   -0.2937 Br  0  0  0  0  0  0  0  0  0  0  0  0
    1.0825   -0.4752    0.4017 C   0  0  0  0  0  0  0  0  0  0  0  0
    2.8255   -0.5884   -0.4782 Br  0  0  0  0  0  0  0  0  0  0  0  0
  1  2  1  0
  2  3  1  0
  3  4  1  1
  3  5  1  0
  5  6  1  0
M  END
