
     RDKit          3D

 11 11  0  0  0  0  0  0  0  0999 V2000
   -2.1530    2.4284   -0.0596 O   0  0  0  0  0  0  0  0  0  0  0  0
   -1.5616    1.3507   -0.0253 C   0  0  0  0  0  0  0  0  0  0  0  0
   -0.0663    1.2776    0.2160 C   0  0  0  0  0  0  0  0  0  0  0  0
   -2.2925    0.0414   -0.2384 C   0  0  0  0  0  0  0  0  0  0  0  0
   -1.5340   -1.1004    0.4233 C   0  0  0  0  0  0  0  0  0  0  0  0
   -0.0990   -1.2420   -0.0981 C   0  0  0  0  0  0  0  0  0  0  0  0
    0.5169    0.0933   -0.5639 C   0  0  2  0  0  0  0  0  0  0  0  0
    2.0500    0.0786   -0.6212 C   0  0  0  0  0  0  0  0  0  0  0  0
    2.6603   -0.0236    0.7461 N   0  0  0  0  0  4  0  0  0  0  0  0
    2.7963    1.0281    1.3821 O   0  0  0  0  0  1  0  0  0  0  0  0
    2.9883   -1.1508    1.1347 O   0  0  0  0  0  0  0  0  0  0  0  0
  1  2  2  0
  2  3  1  0
  2  4  1  0
  4  5  1  0
  5  6  1  0
  6  7  1  0
  7  8  1  1
  8  9  1  0
  9 10  1  0
  9 11  2  0
  7  3  1  0
M  CHG  2   9   1  10  -1
M  END
