
     RDKit          3D

 20 21  0  0  0  0  0  0  0  0999 V2000
   -4.0593   -0.4959   -0.2234 C   0  0  0  0  0  0  0  0  0  0  0  0
   -2.5608   -0.7769    0.0393 C   0  0  0  0  0  0  0  0  0  0  0  0
   -2.1288   -1.9115   -0.9021 C   0  0  0  0  0  0  0  0  0  0  0  0
   -2.4232   -1.2627    1.4957 C   0  0  0  0  0  0  0  0  0  0  0  0
   -1.7515    0.5453   -0.1813 C   0  0  2  0  0  0  0  0  0  0  0  0
   -2.0345    1.0671   -1.4870 O   0  0  0  0  0  0  0  0  0  0  0  0
   -0.2117    0.4706    0.0320 C   0  0  1  0  0  0  0  0  0  0  0  0
    0.5900    0.0824   -1.2296 C   0  0  0  0  0  0  0  0  0  0  0  0
    2.0082   -0.3403   -0.9041 C   0  0  0  0  0  0  0  0  0  0  0  0
    2.2819   -1.6550   -0.5004 C   0  0  0  0  0  0  0  0  0  0  0  0
    3.5855   -2.0365   -0.1757 C   0  0  0  0  0  0  0  0  0  0  0  0
    4.6195   -1.1057   -0.2505 C   0  0  0  0  0  0  0  0  0  0  0  0
    6.2238   -1.5770    0.1538 Cl  0  0  0  0  0  0  0  0  0  0  0  0
    4.3615    0.2035   -0.6491 C   0  0  0  0  0  0  0  0  0  0  0  0
    3.0589    0.5855   -0.9764 C   0  0  0  0  0  0  0  0  0  0  0  0
    0.2576    1.7735    0.5210 N   0  0  0  0  0  0  0  0  0  0  0  0
    0.9776    2.0335    1.6451 C   0  0  0  0  0  0  0  0  0  0  0  0
    1.1814    3.3268    1.7435 N   0  0  0  0  0  0  0  0  0  0  0  0
    0.5597    3.8245    0.6345 C   0  0  0  0  0  0  0  0  0  0  0  0
   -0.0248    2.9126   -0.1486 N   0  0  0  0  0  0  0  0  0  0  0  0
  1  2  1  0
  2  3  1  0
  2  4  1  0
  2  5  1  0
  5  6  1  6
  5  7  1  0
  7  8  1  6
  8  9  1  0
  9 10  2  0
 10 11  1  0
 11 12  2  0
 12 13  1  0
 12 14  1  0
 14 15  2  0
  7 16  1  0
 16 17  1  0
 17 18  2  0
 18 19  1  0
 19 20  2  0
 15  9  1  0
 20 16  1  0
M  END
