
     RDKit          3D

 10 10  0  0  0  0  0  0  0  0999 V2000
    3.6158    0.4711   -0.2560 C   0  0  0  0  0  0  0  0  0  0  0  0
    2.1293    0.2825   -0.1617 C   0  0  0  0  0  0  0  0  0  0  0  0
    1.4618    0.4373    0.9958 C   0  0  0  0  0  0  0  0  0  0  0  0
   -0.0196    0.2208    1.1407 C   0  0  0  0  0  0  0  0  0  0  0  0
   -0.6435   -0.5231   -0.0580 C   0  0  2  0  0  0  0  0  0  0  0  0
   -0.0960    0.0462   -1.3757 C   0  0  0  0  0  0  0  0  0  0  0  0
    1.4287   -0.0942   -1.4447 C   0  0  0  0  0  0  0  0  0  0  0  0
   -2.1675   -0.5327   -0.0077 C   0  0  0  0  0  0  0  0  0  0  0  0
   -2.8437   -1.6742    0.2104 C   0  0  0  0  0  0  0  0  0  0  0  0
   -2.9029    0.7645   -0.2161 C   0  0  0  0  0  0  0  0  0  0  0  0
  1  2  1  0
  2  3  2  0
  3  4  1  0
  4  5  1  0
  5  6  1  0
  6  7  1  0
  5  8  1  6
  8  9  2  0
  8 10  1  0
  7  2  1  0
M  END
