
     RDKit          3D

 14 15  0  0  0  0  0  0  0  0999 V2000
    3.7304    0.3836   -0.7370 C   0  0  0  0  0  0  0  0  0  0  0  0
    2.4572   -0.1553   -0.3268 N   0  0  0  0  0  0  0  0  0  0  0  0
    2.2172   -0.6533    0.9187 C   0  0  0  0  0  0  0  0  0  0  0  0
    3.0147   -0.7442    1.8404 O   0  0  0  0  0  0  0  0  0  0  0  0
    0.7922   -1.1213    0.9950 C   0  0  0  0  0  0  0  0  0  0  0  0
    0.2448   -0.9134   -0.4152 C   0  0  1  0  0  0  0  0  0  0  0  0
   -1.0194   -0.0692   -0.5451 C   0  0  1  0  0  0  0  0  0  0  0  0
   -2.2723   -0.7397    0.0260 C   0  0  0  0  0  0  0  0  0  0  0  0
   -3.2230    0.4229    0.2877 C   0  0  0  0  0  0  0  0  0  0  0  0
   -2.3407    1.5125    0.8854 C   0  0  0  0  0  0  0  0  0  0  0  0
   -1.0050    1.2216    0.2494 C   0  0  0  0  0  0  0  0  0  0  0  0
   -0.0166    1.9308    0.3838 O   0  0  0  0  0  0  0  0  0  0  0  0
    1.3920   -0.2837   -1.1677 C   0  0  0  0  0  0  0  0  0  0  0  0
    1.3531    0.0111   -2.3538 O   0  0  0  0  0  0  0  0  0  0  0  0
  1  2  1  0
  2  3  1  0
  3  4  2  0
  3  5  1  0
  6  5  1  1
  6  7  1  0
  7  8  1  1
  8  9  1  0
  9 10  1  0
 10 11  1  0
 11 12  2  0
  6 13  1  0
 13 14  2  0
 13  2  1  0
 11  7  1  0
M  END
