
     RDKit          3D

 10 10  0  0  0  0  0  0  0  0999 V2000
   -2.4532    0.0790    0.6536 C   0  0  0  0  0  0  0  0  0  0  0  0
   -1.4899    0.7430   -0.3208 C   0  0  1  0  0  0  0  0  0  0  0  0
   -0.0703    0.2395   -0.1676 C   0  0  0  0  0  0  0  0  0  0  0  0
    0.2736   -1.0728   -0.5328 C   0  0  0  0  0  0  0  0  0  0  0  0
    1.5843   -1.5328   -0.3866 C   0  0  0  0  0  0  0  0  0  0  0  0
    2.5610   -0.6839    0.1275 C   0  0  0  0  0  0  0  0  0  0  0  0
    2.2381    0.6200    0.4964 C   0  0  0  0  0  0  0  0  0  0  0  0
    0.9268    1.0802    0.3500 C   0  0  0  0  0  0  0  0  0  0  0  0
    4.1761   -1.2484    0.3083 Cl  0  0  0  0  0  0  0  0  0  0  0  0
   -1.9489    0.5112   -1.6510 O   0  0  0  0  0  0  0  0  0  0  0  0
  2  1  1  1
  2  3  1  0
  3  4  2  0
  4  5  1  0
  5  6  2  0
  6  7  1  0
  7  8  2  0
  6  9  1  0
  2 10  1  0
  8  3  1  0
M  END
