
     RDKit          3D

 27 29  0  0  0  0  0  0  0  0999 V2000
   -3.7256    0.3716    1.6314 C   0  0  0  0  0  0  0  0  0  0  0  0
   -2.7335    0.9357    0.5924 C   0  0  2  0  0  0  0  0  0  0  0  0
   -2.8399    2.3604    0.7426 O   0  0  0  0  0  0  0  0  0  0  0  0
   -3.1524    0.5690   -0.8522 C   0  0  0  0  0  0  0  0  0  0  0  0
   -3.1098   -0.8383   -1.1673 N   0  0  0  0  0  0  0  0  0  0  0  0
   -2.1183   -1.5223   -1.7988 C   0  0  0  0  0  0  0  0  0  0  0  0
   -2.4695   -2.7806   -1.9285 N   0  0  0  0  0  0  0  0  0  0  0  0
   -3.7164   -2.8105   -1.3726 C   0  0  0  0  0  0  0  0  0  0  0  0
   -4.1535   -1.6422   -0.8939 N   0  0  0  0  0  0  0  0  0  0  0  0
   -1.2644    0.5637    0.8715 C   0  0  0  0  0  0  0  0  0  0  0  0
   -0.9788   -0.7017    1.4395 C   0  0  0  0  0  0  0  0  0  0  0  0
    0.3257   -1.1142    1.7164 C   0  0  0  0  0  0  0  0  0  0  0  0
    1.3893   -0.2807    1.4155 C   0  0  0  0  0  0  0  0  0  0  0  0
    2.6513   -0.7179    1.7406 O   0  0  0  0  0  0  0  0  0  0  0  0
    3.6108   -0.6354    0.7570 C   0  0  0  0  0  0  0  0  0  0  0  0
    4.8464   -0.0964    1.1187 C   0  0  0  0  0  0  0  0  0  0  0  0
    5.8716   -0.0132    0.1746 C   0  0  0  0  0  0  0  0  0  0  0  0
    5.6588   -0.4849   -1.1207 C   0  0  0  0  0  0  0  0  0  0  0  0
    6.9224   -0.3837   -2.2841 Cl  0  0  0  0  0  0  0  0  0  0  0  0
    4.4325   -1.0455   -1.4785 C   0  0  0  0  0  0  0  0  0  0  0  0
    3.4061   -1.1287   -0.5351 C   0  0  0  0  0  0  0  0  0  0  0  0
    1.1501    0.9768    0.8654 C   0  0  0  0  0  0  0  0  0  0  0  0
   -0.1624    1.4136    0.5633 C   0  0  0  0  0  0  0  0  0  0  0  0
   -0.2849    2.7958   -0.0646 C   0  0  0  0  0  0  0  0  0  0  0  0
   -0.6505    3.7702    0.8106 F   0  0  0  0  0  0  0  0  0  0  0  0
   -1.1492    2.8448   -1.1178 F   0  0  0  0  0  0  0  0  0  0  0  0
    0.9029    3.2288   -0.5923 F   0  0  0  0  0  0  0  0  0  0  0  0
  2  1  1  1
  2  3  1  0
  2  4  1  0
  4  5  1  0
  5  6  1  0
  6  7  2  0
  7  8  1  0
  8  9  2  0
  2 10  1  0
 10 11  2  0
 11 12  1  0
 12 13  2  0
 13 14  1  0
 14 15  1  0
 15 16  2  0
 16 17  1  0
 17 18  2  0
 18 19  1  0
 18 20  1  0
 20 21  2  0
 13 22  1  0
 22 23  2  0
 23 24  1  0
 24 25  1  0
 24 26  1  0
 24 27  1  0
  9  5  1  0
 23 10  1  0
 21 15  1  0
M  END
