
     RDKit          3D

 18 19  0  0  0  0  0  0  0  0999 V2000
    1.2829    1.5882   -0.0726 O   0  0  0  0  0  0  0  0  0  0  0  0
    0.8755    0.4412    0.0481 C   0  0  0  0  0  0  0  0  0  0  0  0
    1.6716   -0.5574    0.5356 O   0  0  0  0  0  0  0  0  0  0  0  0
    3.0484   -0.3120    0.9249 C   0  0  0  0  0  0  0  0  0  0  0  0
    3.5626   -1.6802    1.4001 C   0  0  0  0  0  0  0  0  0  0  0  0
    3.1316    0.6725    2.0964 C   0  0  0  0  0  0  0  0  0  0  0  0
    3.8964    0.1383   -0.2695 C   0  0  0  0  0  0  0  0  0  0  0  0
   -0.4163   -0.0301   -0.2534 N   0  0  0  0  0  0  0  0  0  0  0  0
   -0.7206   -1.4298    0.0534 C   0  0  0  0  0  0  0  0  0  0  0  0
   -1.9556   -1.9735   -0.6305 C   0  0  0  0  0  0  0  0  0  0  0  0
   -3.1324   -1.0833   -0.2975 C   0  0  2  0  0  0  0  0  0  0  0  0
   -4.2852   -1.5861   -0.9718 O   0  0  0  0  0  0  0  0  0  0  0  0
   -2.8253    0.3336   -0.7154 C   0  0  0  0  0  0  0  0  0  0  0  0
   -3.8868    1.1834   -1.0891 C   0  0  0  0  0  0  0  0  0  0  0  0
   -3.6526    2.5003   -1.4660 C   0  0  0  0  0  0  0  0  0  0  0  0
   -2.3538    2.9838   -1.4697 C   0  0  0  0  0  0  0  0  0  0  0  0
   -1.2928    2.1563   -1.0837 C   0  0  0  0  0  0  0  0  0  0  0  0
   -1.4983    0.8262   -0.6815 C   0  0  0  0  0  0  0  0  0  0  0  0
  1  2  2  0
  2  3  1  0
  3  4  1  0
  4  5  1  0
  4  6  1  0
  4  7  1  0
  2  8  1  0
  8  9  1  0
  9 10  1  0
 10 11  1  0
 11 12  1  6
 11 13  1  0
 13 14  2  0
 14 15  1  0
 15 16  2  0
 16 17  1  0
 17 18  2  0
 18  8  1  0
 18 13  1  0
M  END
