
     RDKit          3D

 18 18  0  0  0  0  0  0  0  0999 V2000
   -4.4656   -2.5396   -0.0971 C   0  0  0  0  0  0  0  0  0  0  0  0
   -3.4715   -1.7563   -0.9298 C   0  0  0  0  0  0  0  0  0  0  0  0
   -3.0675   -0.6141   -0.1928 O   0  0  0  0  0  0  0  0  0  0  0  0
   -1.7918    0.2339   -0.7250 P   0  0  0  0  0  5  0  0  0  0  0  0
   -1.9919    1.0483   -2.4758 S   0  0  0  0  0  0  0  0  0  0  0  0
   -1.5594    1.2412    0.5234 O   0  0  0  0  0  0  0  0  0  0  0  0
   -2.5728    2.1846    0.8273 C   0  0  0  0  0  0  0  0  0  0  0  0
   -2.2284    2.8522    2.1430 C   0  0  0  0  0  0  0  0  0  0  0  0
   -0.5991   -0.8366   -0.5256 O   0  0  0  0  0  0  0  0  0  0  0  0
    0.7403   -0.5851   -0.6093 C   0  0  0  0  0  0  0  0  0  0  0  0
    1.5684   -1.7072   -0.5544 C   0  0  0  0  0  0  0  0  0  0  0  0
    2.9560   -1.5660   -0.6287 C   0  0  0  0  0  0  0  0  0  0  0  0
    3.5269   -0.2970   -0.7506 C   0  0  0  0  0  0  0  0  0  0  0  0
    5.3196   -0.0898   -0.8547 S   0  0  0  0  0  4  0  0  0  0  0  0
    5.5727    0.5304    0.8283 C   0  0  0  0  0  0  0  0  0  0  0  0
    5.8935   -1.4758   -0.9075 O   0  0  0  0  0  0  0  0  0  0  0  0
    2.6934    0.8252   -0.8088 C   0  0  0  0  0  0  0  0  0  0  0  0
    1.3031    0.6823   -0.7327 C   0  0  0  0  0  0  0  0  0  0  0  0
  1  2  1  0
  2  3  1  0
  3  4  1  0
  4  5  2  0
  4  6  1  0
  6  7  1  0
  7  8  1  0
  4  9  1  0
  9 10  1  0
 10 11  2  0
 11 12  1  0
 12 13  2  0
 13 14  1  0
 14 15  1  1
 14 16  2  0
 13 17  1  0
 17 18  2  0
 18 10  1  0
M  END
