
     RDKit          3D

 16 17  0  0  0  0  0  0  0  0999 V2000
    4.6691   -0.3156   -0.4198 C   0  0  0  0  0  0  0  0  0  0  0  0
    3.7236    0.8143   -0.7938 C   0  0  0  0  0  0  0  0  0  0  0  0
    2.4521    0.6845   -0.1086 N   0  0  0  0  0  0  0  0  0  0  0  0
    2.1639    1.2932    1.0782 C   0  0  0  0  0  0  0  0  0  0  0  0
    2.9192    1.9566    1.7708 O   0  0  0  0  0  0  0  0  0  0  0  0
    0.7043    1.0889    1.3658 C   0  0  0  0  0  0  0  0  0  0  0  0
    0.3328   -0.0932    0.4753 C   0  0  1  0  0  0  0  0  0  0  0  0
   -1.0902   -0.0934   -0.1048 C   0  0  2  0  0  0  0  0  0  0  0  0
   -2.1611    0.4015    0.8814 C   0  0  0  0  0  0  0  0  0  0  0  0
   -3.6046    0.1389    0.4233 C   0  0  0  0  0  0  0  0  0  0  0  0
   -3.6998   -0.3695   -1.0121 C   0  0  0  0  0  0  0  0  0  0  0  0
   -2.8589   -1.6256   -1.2090 C   0  0  0  0  0  0  0  0  0  0  0  0
   -1.5068   -1.4978   -0.5380 C   0  0  0  0  0  0  0  0  0  0  0  0
   -0.8012   -2.4891   -0.3565 O   0  0  0  0  0  0  0  0  0  0  0  0
    1.3798    0.0046   -0.6147 C   0  0  0  0  0  0  0  0  0  0  0  0
    1.2762   -0.4514   -1.7425 O   0  0  0  0  0  0  0  0  0  0  0  0
  1  2  1  0
  2  3  1  0
  3  4  1  0
  4  5  2  0
  4  6  1  0
  7  6  1  1
  7  8  1  0
  8  9  1  1
  9 10  1  0
 10 11  1  0
 11 12  1  0
 12 13  1  0
 13 14  2  0
  7 15  1  0
 15 16  2  0
 15  3  1  0
 13  8  1  0
M  END
