
     RDKit          3D

 18 19  0  0  0  0  0  0  0  0999 V2000
    3.7049    0.4266    1.5441 C   0  0  0  0  0  0  0  0  0  0  0  0
    3.5074   -0.6860    0.5260 C   0  0  0  0  0  0  0  0  0  0  0  0
    2.2706   -0.5212   -0.2138 N   0  0  0  0  0  0  0  0  0  0  0  0
    2.1627    0.2628   -1.3241 C   0  0  0  0  0  0  0  0  0  0  0  0
    3.0689    0.8332   -1.9113 O   0  0  0  0  0  0  0  0  0  0  0  0
    0.7140    0.3685   -1.6993 C   0  0  0  0  0  0  0  0  0  0  0  0
    0.0088   -0.6677   -0.8151 C   0  0  2  0  0  0  0  0  0  0  0  0
   -1.3461   -0.2182   -0.2247 C   0  0  1  0  0  0  0  0  0  0  0  0
   -2.1904    0.4190   -1.3226 C   0  0  0  0  0  0  0  0  0  0  0  0
   -2.7850    1.7889   -1.1110 C   0  0  0  0  0  0  0  0  0  0  0  0
   -2.3918   -0.1890   -2.3779 O   0  0  0  0  0  0  0  0  0  0  0  0
   -2.1361   -1.3829    0.3749 C   0  0  0  0  0  0  0  0  0  0  0  0
   -2.8631   -0.7544    1.5380 C   0  0  0  0  0  0  0  0  0  0  0  0
   -2.0436    0.3303    1.9666 O   0  0  0  0  0  0  0  0  0  0  0  0
   -1.1696    0.6668    0.9797 C   0  0  0  0  0  0  0  0  0  0  0  0
   -0.3870    1.6020    1.0468 O   0  0  0  0  0  0  0  0  0  0  0  0
    1.0629   -0.9725    0.2273 C   0  0  0  0  0  0  0  0  0  0  0  0
    0.8446   -1.5650    1.2734 O   0  0  0  0  0  0  0  0  0  0  0  0
  1  2  1  0
  2  3  1  0
  3  4  1  0
  4  5  2  0
  4  6  1  0
  7  6  1  6
  7  8  1  0
  8  9  1  6
  9 10  1  0
  9 11  2  0
  8 12  1  0
 12 13  1  0
 13 14  1  0
 14 15  1  0
 15 16  2  0
  7 17  1  0
 17 18  2  0
 17  3  1  0
 15  8  1  0
M  END
