
     RDKit          3D

 17 17  0  0  0  0  0  0  0  0999 V2000
    3.0710    0.5417    0.4043 C   0  0  0  0  0  0  0  0  0  0  0  0
    2.3314   -0.3049   -0.6252 C   0  0  2  0  0  0  0  0  0  0  0  0
    2.6013    0.2245   -1.9231 O   0  0  0  0  0  0  0  0  0  0  0  0
    0.7969   -0.3793   -0.4484 C   0  0  0  0  0  0  0  0  0  0  0  0
    0.1112    0.9970   -0.5247 C   0  0  0  0  0  0  0  0  0  0  0  0
   -1.4163    0.8795   -0.4136 C   0  0  0  0  0  0  0  0  0  0  0  0
   -2.0667    2.2584   -0.4581 C   0  0  0  0  0  0  0  0  0  0  0  0
   -1.7638    2.9083   -1.6017 F   0  0  0  0  0  0  0  0  0  0  0  0
   -1.6628    3.0286    0.5755 F   0  0  0  0  0  0  0  0  0  0  0  0
   -3.4127    2.1571   -0.3919 F   0  0  0  0  0  0  0  0  0  0  0  0
   -1.8108    0.1339    0.8718 C   0  0  0  0  0  0  0  0  0  0  0  0
   -1.1234   -1.2318    1.0393 C   0  0  0  0  0  0  0  0  0  0  0  0
   -1.7450   -2.3123    0.1564 C   0  0  0  0  0  0  0  0  0  0  0  0
   -3.0598   -2.4559    0.4366 F   0  0  0  0  0  0  0  0  0  0  0  0
   -1.6378   -2.0355   -1.1571 F   0  0  0  0  0  0  0  0  0  0  0  0
   -1.1542   -3.5081    0.3751 F   0  0  0  0  0  0  0  0  0  0  0  0
    0.3972   -1.1076    0.8445 C   0  0  0  0  0  0  0  0  0  0  0  0
  2  1  1  1
  2  3  1  0
  2  4  1  0
  4  5  1  0
  5  6  1  0
  6  7  1  0
  7  8  1  0
  7  9  1  0
  7 10  1  0
  6 11  1  0
 11 12  1  0
 12 13  1  0
 13 14  1  0
 13 15  1  0
 13 16  1  0
 12 17  1  0
 17  4  1  0
M  END
