
     RDKit          3D

 16 15  0  0  0  0  0  0  0  0999 V2000
   -5.1810   -0.2650   -1.5836 C   0  0  0  0  0  0  0  0  0  0  0  0
   -5.3624   -1.2401   -0.4304 C   0  0  0  0  0  0  0  0  0  0  0  0
   -4.4928   -0.9156    0.7867 C   0  0  0  0  0  0  0  0  0  0  0  0
   -2.9947   -1.0714    0.5181 C   0  0  0  0  0  0  0  0  0  0  0  0
   -2.1939   -0.8538    1.7716 C   0  0  0  0  0  0  0  0  0  0  0  0
   -1.4240    0.2042    2.0738 C   0  0  0  0  0  0  0  0  0  0  0  0
   -1.2211    1.4480    1.2552 C   0  0  0  0  0  0  0  0  0  0  0  0
    0.1987    1.5647    0.6983 C   0  0  0  0  0  0  0  0  0  0  0  0
    0.5206    0.4898   -0.3355 C   0  0  0  0  0  0  0  0  0  0  0  0
    1.8736    0.7368   -0.9481 C   0  0  0  0  0  0  0  0  0  0  0  0
    2.0461    1.2588   -2.0407 O   0  0  0  0  0  0  0  0  0  0  0  0
    2.8566    0.3171   -0.1054 O   0  0  0  0  0  0  0  0  0  0  0  0
    4.2097    0.5081   -0.5608 C   0  0  1  0  0  0  0  0  0  0  0  0
    4.6589    1.9214   -0.2005 C   0  0  0  0  0  0  0  0  0  0  0  0
    5.0958   -0.5305    0.1382 C   0  0  0  0  0  0  0  0  0  0  0  0
    4.7206   -1.9567   -0.2433 C   0  0  0  0  0  0  0  0  0  0  0  0
  1  2  1  0
  2  3  1  0
  3  4  1  0
  4  5  1  0
  5  6  2  0
  6  7  1  0
  7  8  1  0
  8  9  1  0
  9 10  1  0
 10 11  2  0
 10 12  1  0
 12 13  1  0
 13 14  1  1
 13 15  1  0
 15 16  1  0
M  END
