
     RDKit          3D

 14 15  0  0  0  0  0  0  0  0999 V2000
    3.8590   -0.6060   -0.8523 C   0  0  0  0  0  0  0  0  0  0  0  0
    2.6428   -0.1329   -0.2361 N   0  0  0  0  0  0  0  0  0  0  0  0
    2.5550    0.1957    1.0839 C   0  0  0  0  0  0  0  0  0  0  0  0
    3.4699    0.2200    1.8927 O   0  0  0  0  0  0  0  0  0  0  0  0
    1.1174    0.4626    1.4175 C   0  0  0  0  0  0  0  0  0  0  0  0
    0.4075    0.4835    0.0611 C   0  0  2  0  0  0  0  0  0  0  0  0
   -0.9380   -0.2399    0.0573 C   0  0  2  0  0  0  0  0  0  0  0  0
   -1.6677   -0.2196   -1.2939 C   0  0  0  0  0  0  0  0  0  0  0  0
   -3.1400   -0.3694   -0.9352 C   0  0  0  0  0  0  0  0  0  0  0  0
   -3.3243    0.5293    0.2768 C   0  0  0  0  0  0  0  0  0  0  0  0
   -1.9696    0.4505    0.9316 C   0  0  0  0  0  0  0  0  0  0  0  0
   -1.7332    0.9019    2.0452 O   0  0  0  0  0  0  0  0  0  0  0  0
    1.4280   -0.1494   -0.8560 C   0  0  0  0  0  0  0  0  0  0  0  0
    1.1992   -0.5715   -1.9791 O   0  0  0  0  0  0  0  0  0  0  0  0
  1  2  1  0
  2  3  1  0
  3  4  2  0
  3  5  1  0
  6  5  1  1
  6  7  1  0
  7  8  1  6
  8  9  1  0
  9 10  1  0
 10 11  1  0
 11 12  2  0
  6 13  1  0
 13 14  2  0
 13  2  1  0
 11  7  1  0
M  END
