
     RDKit          3D

 19 20  0  0  0  0  0  0  0  0999 V2000
   -3.0641   -1.5239   -0.6033 O   0  0  0  0  0  0  0  0  0  0  0  0
   -3.3709   -0.3616   -0.8546 C   0  0  0  0  0  0  0  0  0  0  0  0
   -2.8282    0.8374   -0.0836 C   0  0  0  0  0  0  0  0  0  0  0  0
   -1.4437    0.5287    0.5410 C   0  0  1  0  0  0  0  0  0  0  0  0
   -1.4398   -0.4077    1.7536 C   0  0  0  0  0  0  0  0  0  0  0  0
   -0.2189   -1.2577    1.5612 C   0  0  0  0  0  0  0  0  0  0  0  0
    0.2401   -2.0028    2.4144 O   0  0  0  0  0  0  0  0  0  0  0  0
    0.2454   -1.0753    0.2939 N   0  0  0  0  0  0  0  0  0  0  0  0
    1.3605   -1.8097   -0.2607 C   0  0  0  0  0  0  0  0  0  0  0  0
    2.6636   -1.0737   -0.0504 C   0  0  0  0  0  0  0  0  0  0  0  0
    3.4046   -1.2614    1.1253 C   0  0  0  0  0  0  0  0  0  0  0  0
    4.5956   -0.5634    1.3298 C   0  0  0  0  0  0  0  0  0  0  0  0
    5.0534    0.3335    0.3662 C   0  0  0  0  0  0  0  0  0  0  0  0
    4.3189    0.5372   -0.8007 C   0  0  0  0  0  0  0  0  0  0  0  0
    3.1275   -0.1597   -1.0074 C   0  0  0  0  0  0  0  0  0  0  0  0
   -0.4619   -0.1401   -0.4019 C   0  0  0  0  0  0  0  0  0  0  0  0
   -0.3044    0.1663   -1.5750 O   0  0  0  0  0  0  0  0  0  0  0  0
   -2.7290    2.0212   -1.0653 C   0  0  0  0  0  0  0  0  0  0  0  0
   -3.8629    1.2036    0.9934 C   0  0  0  0  0  0  0  0  0  0  0  0
  1  2  2  0
  2  3  1  0
  4  3  1  6
  4  5  1  0
  5  6  1  0
  6  7  2  0
  6  8  1  0
  8  9  1  0
  9 10  1  0
 10 11  2  0
 11 12  1  0
 12 13  2  0
 13 14  1  0
 14 15  2  0
  8 16  1  0
 16 17  2  0
  3 18  1  0
  3 19  1  0
 16  4  1  0
 15 10  1  0
M  END
