
     RDKit          3D

 26 27  0  0  0  0  0  0  0  0999 V2000
    4.3690   -2.9651    0.5406 N   0  0  0  0  0  0  0  0  0  0  0  0
    3.4951   -2.2077    0.4359 C   0  0  0  0  0  0  0  0  0  0  0  0
    2.4785   -1.2051    0.3163 C   0  0  0  0  0  0  0  0  0  0  0  0
    1.1945   -1.5698    0.2444 N   0  0  0  0  0  0  0  0  0  0  0  0
    0.5054   -0.3967    0.1764 N   0  0  0  0  0  0  0  0  0  0  0  0
   -0.9056   -0.4159    0.0998 C   0  0  0  0  0  0  0  0  0  0  0  0
   -1.5404   -1.1684   -0.9026 C   0  0  0  0  0  0  0  0  0  0  0  0
   -0.6907   -1.9909   -2.1679 Cl  0  0  0  0  0  0  0  0  0  0  0  0
   -2.9395   -1.2066   -0.9737 C   0  0  0  0  0  0  0  0  0  0  0  0
   -3.7269   -0.4988   -0.0564 C   0  0  0  0  0  0  0  0  0  0  0  0
   -5.2338   -0.5621   -0.1229 C   0  0  0  0  0  0  0  0  0  0  0  0
   -5.7022   -0.7644   -1.3841 F   0  0  0  0  0  0  0  0  0  0  0  0
   -5.8286    0.5795    0.3188 F   0  0  0  0  0  0  0  0  0  0  0  0
   -5.7385   -1.5703    0.6365 F   0  0  0  0  0  0  0  0  0  0  0  0
   -3.0865    0.2354    0.9509 C   0  0  0  0  0  0  0  0  0  0  0  0
   -1.6881    0.2784    1.0346 C   0  0  0  0  0  0  0  0  0  0  0  0
   -1.0339    1.1192    2.3984 Cl  0  0  0  0  0  0  0  0  0  0  0  0
    1.3633    0.7073    0.1846 C   0  0  0  0  0  0  0  0  0  0  0  0
    0.9710    2.0038    0.0607 N   0  0  0  0  0  0  0  0  0  0  0  0
    2.6338    0.1855    0.2670 C   0  0  0  0  0  0  0  0  0  0  0  0
    4.1705    1.0950    0.3068 S   0  0  0  0  0  4  0  0  0  0  0  0
    3.8178    2.5133    0.6708 O   0  0  0  0  0  0  0  0  0  0  0  0
    4.5421    0.9813   -1.4678 C   0  0  0  0  0  0  0  0  0  0  0  0
    4.6696   -0.3140   -1.8579 F   0  0  0  0  0  0  0  0  0  0  0  0
    3.5806    1.5350   -2.2471 F   0  0  0  0  0  0  0  0  0  0  0  0
    5.7117    1.5973   -1.7745 F   0  0  0  0  0  0  0  0  0  0  0  0
  1  2  3  0
  2  3  1  0
  3  4  2  0
  4  5  1  0
  5  6  1  0
  6  7  2  0
  7  8  1  0
  7  9  1  0
  9 10  2  0
 10 11  1  0
 11 12  1  0
 11 13  1  0
 11 14  1  0
 10 15  1  0
 15 16  2  0
 16 17  1  0
  5 18  1  0
 18 19  1  0
 18 20  2  0
 20 21  1  0
 21 22  2  0
 21 23  1  6
 23 24  1  0
 23 25  1  0
 23 26  1  0
 20  3  1  0
 16  6  1  0
M  END
