
     RDKit          3D

 22 23  0  0  0  0  0  0  0  0999 V2000
    6.0941   -0.1550    2.0691 C   0  0  0  0  0  0  0  0  0  0  0  0
    5.0139    0.3028    1.2539 O   0  0  0  0  0  0  0  0  0  0  0  0
    4.2411   -0.7030    0.7391 C   0  0  0  0  0  0  0  0  0  0  0  0
    4.4289   -1.8933    0.9548 O   0  0  0  0  0  0  0  0  0  0  0  0
    3.1087   -0.1076   -0.1049 C   0  0  1  0  0  0  0  0  0  0  0  0
    3.7012    0.5979   -1.3205 C   0  0  0  0  0  0  0  0  0  0  0  0
    2.2640   -1.1734   -0.5449 O   0  0  0  0  0  0  0  0  0  0  0  0
    0.9308   -0.9376   -0.7219 C   0  0  0  0  0  0  0  0  0  0  0  0
    0.3041    0.3091   -0.7353 C   0  0  0  0  0  0  0  0  0  0  0  0
   -1.0782    0.3997   -0.9359 C   0  0  0  0  0  0  0  0  0  0  0  0
   -1.8358   -0.7592   -1.1147 C   0  0  0  0  0  0  0  0  0  0  0  0
   -3.1920   -0.7319   -1.3457 O   0  0  0  0  0  0  0  0  0  0  0  0
   -3.9514    0.0356   -0.4895 C   0  0  0  0  0  0  0  0  0  0  0  0
   -3.9006   -0.1723    0.8943 C   0  0  0  0  0  0  0  0  0  0  0  0
   -4.7091    0.5875    1.7415 C   0  0  0  0  0  0  0  0  0  0  0  0
   -5.5748    1.5396    1.2035 C   0  0  0  0  0  0  0  0  0  0  0  0
   -6.5687    2.4741    2.2520 Cl  0  0  0  0  0  0  0  0  0  0  0  0
   -5.6467    1.7382   -0.1742 C   0  0  0  0  0  0  0  0  0  0  0  0
   -4.8384    0.9789   -1.0217 C   0  0  0  0  0  0  0  0  0  0  0  0
   -4.9487    1.2468   -2.7231 Cl  0  0  0  0  0  0  0  0  0  0  0  0
   -1.2123   -2.0036   -1.1364 C   0  0  0  0  0  0  0  0  0  0  0  0
    0.1662   -2.0892   -0.9341 C   0  0  0  0  0  0  0  0  0  0  0  0
  1  2  1  0
  2  3  1  0
  3  4  2  0
  3  5  1  0
  5  6  1  6
  5  7  1  0
  7  8  1  0
  8  9  2  0
  9 10  1  0
 10 11  2  0
 11 12  1  0
 12 13  1  0
 13 14  2  0
 14 15  1  0
 15 16  2  0
 16 17  1  0
 16 18  1  0
 18 19  2  0
 19 20  1  0
 11 21  1  0
 21 22  2  0
 22  8  1  0
 19 13  1  0
M  END
