
     RDKit          3D

 19 20  0  0  0  0  0  0  0  0999 V2000
    1.5376   -2.6645   -0.1428 O   0  0  0  0  0  0  0  0  0  0  0  0
    1.6955   -1.4707   -0.3509 C   0  0  0  0  0  0  0  0  0  0  0  0
    3.0255   -0.8608   -0.7643 C   0  0  1  0  0  0  0  0  0  0  0  0
    3.2287   -1.1212   -2.5176 Cl  0  0  0  0  0  0  0  0  0  0  0  0
    2.8471    0.6208   -0.4400 C   0  0  2  0  0  0  0  0  0  0  0  0
    3.2129    0.9422    1.0135 C   0  0  0  0  0  0  0  0  0  0  0  0
    4.9685    0.8116    1.2773 Cl  0  0  0  0  0  0  0  0  0  0  0  0
    1.3536    0.8291   -0.6657 C   0  0  0  0  0  0  0  0  0  0  0  0
    0.7468   -0.4294   -0.2926 N   0  0  0  0  0  0  0  0  0  0  0  0
   -0.6479   -0.5714   -0.0485 C   0  0  0  0  0  0  0  0  0  0  0  0
   -1.2029   -1.7797    0.3890 C   0  0  0  0  0  0  0  0  0  0  0  0
   -2.5747   -1.9053    0.6351 C   0  0  0  0  0  0  0  0  0  0  0  0
   -3.4242   -0.8209    0.4452 C   0  0  0  0  0  0  0  0  0  0  0  0
   -2.9080    0.3992   -0.0013 C   0  0  0  0  0  0  0  0  0  0  0  0
   -3.8095    1.5926   -0.1979 C   0  0  0  0  0  0  0  0  0  0  0  0
   -3.8152    2.4165    0.8860 F   0  0  0  0  0  0  0  0  0  0  0  0
   -5.1098    1.2597   -0.4250 F   0  0  0  0  0  0  0  0  0  0  0  0
   -3.4338    2.3694   -1.2527 F   0  0  0  0  0  0  0  0  0  0  0  0
   -1.5225    0.5123   -0.2357 C   0  0  0  0  0  0  0  0  0  0  0  0
  1  2  2  0
  2  3  1  0
  3  4  1  6
  3  5  1  0
  5  6  1  1
  6  7  1  0
  5  8  1  0
  8  9  1  0
  9 10  1  0
 10 11  2  0
 11 12  1  0
 12 13  2  0
 13 14  1  0
 14 15  1  0
 15 16  1  0
 15 17  1  0
 15 18  1  0
 14 19  2  0
  9  2  1  0
 19 10  1  0
M  END
