
     RDKit          3D

 16 17  0  0  0  0  0  0  0  0999 V2000
    4.2608    0.1923    1.0880 C   0  0  0  0  0  0  0  0  0  0  0  0
    3.4909   -0.9449    0.4364 C   0  0  0  0  0  0  0  0  0  0  0  0
    2.2919   -0.4601   -0.2201 N   0  0  0  0  0  0  0  0  0  0  0  0
    2.2358   -0.1164   -1.5395 C   0  0  0  0  0  0  0  0  0  0  0  0
    3.1607   -0.0845   -2.3352 O   0  0  0  0  0  0  0  0  0  0  0  0
    0.7995    0.1431   -1.8936 C   0  0  0  0  0  0  0  0  0  0  0  0
    0.1394    0.3794   -0.5385 C   0  0  1  0  0  0  0  0  0  0  0  0
   -1.3081   -0.1155   -0.3908 C   0  0  2  0  0  0  0  0  0  0  0  0
   -2.2022    0.2519   -1.5769 C   0  0  0  0  0  0  0  0  0  0  0  0
   -3.8672   -0.4842   -1.4076 S   0  0  0  0  0  0  0  0  0  0  0  0
   -4.3244    0.2091    0.2167 C   0  0  0  0  0  0  0  0  0  0  0  0
   -3.2752   -0.0945    1.2689 C   0  0  0  0  0  0  0  0  0  0  0  0
   -1.9597    0.5081    0.8414 C   0  0  0  0  0  0  0  0  0  0  0  0
   -1.4908    1.4875    1.4193 O   0  0  0  0  0  0  0  0  0  0  0  0
    1.0735   -0.3665    0.3907 C   0  0  0  0  0  0  0  0  0  0  0  0
    0.7765   -0.7981    1.4935 O   0  0  0  0  0  0  0  0  0  0  0  0
  1  2  1  0
  2  3  1  0
  3  4  1  0
  4  5  2  0
  4  6  1  0
  7  6  1  6
  7  8  1  0
  8  9  1  6
  9 10  1  0
 10 11  1  0
 11 12  1  0
 12 13  1  0
 13 14  2  0
  7 15  1  0
 15 16  2  0
 15  3  1  0
 13  8  1  0
M  END
