
     RDKit          3D

 18 19  0  0  0  0  0  0  0  0999 V2000
   -4.5635   -1.1062   -1.9179 O   0  0  0  0  0  0  0  0  0  0  0  0
   -3.8105   -0.2276   -1.5051 C   0  0  0  0  0  0  0  0  0  0  0  0
   -3.2222   -0.2120   -0.0914 C   0  0  0  0  0  0  0  0  0  0  0  0
   -2.0316    0.7779   -0.0315 C   0  0  1  0  0  0  0  0  0  0  0  0
   -1.4122    0.9986    1.3464 C   0  0  0  0  0  0  0  0  0  0  0  0
    0.0671    0.8923    1.1225 C   0  0  0  0  0  0  0  0  0  0  0  0
    0.8911    1.0343    2.0127 O   0  0  0  0  0  0  0  0  0  0  0  0
    0.3058    0.5817   -0.1851 N   0  0  0  0  0  0  0  0  0  0  0  0
    1.6248    0.2585   -0.7381 C   0  0  0  0  0  0  0  0  0  0  0  0
    2.6752    1.3623   -0.4967 C   0  0  0  0  0  0  0  0  0  0  0  0
    3.7976    0.9321    0.4432 C   0  0  0  0  0  0  0  0  0  0  0  0
    4.4940   -0.3427   -0.0305 C   0  0  0  0  0  0  0  0  0  0  0  0
    3.5475   -1.3713   -0.6508 C   0  0  0  0  0  0  0  0  0  0  0  0
    2.0925   -1.1300   -0.2696 C   0  0  0  0  0  0  0  0  0  0  0  0
   -0.8509    0.3609   -0.8774 C   0  0  0  0  0  0  0  0  0  0  0  0
   -0.9495   -0.0714   -2.0160 O   0  0  0  0  0  0  0  0  0  0  0  0
   -2.8276   -1.6481    0.2937 C   0  0  0  0  0  0  0  0  0  0  0  0
   -4.3539    0.2735    0.8323 C   0  0  0  0  0  0  0  0  0  0  0  0
  1  2  2  0
  2  3  1  0
  4  3  1  1
  4  5  1  0
  5  6  1  0
  6  7  2  0
  6  8  1  0
  8  9  1  0
  9 10  1  0
 10 11  1  0
 11 12  1  0
 12 13  1  0
 13 14  1  0
  8 15  1  0
 15 16  2  0
  3 17  1  0
  3 18  1  0
 15  4  1  0
 14  9  1  0
M  END
