
     RDKit          3D

  7  7  0  0  0  0  0  0  0  0999 V2000
    2.1068   -0.1139    0.1272 C   0  0  0  0  0  0  0  0  0  0  0  0
    0.7224    0.0073   -0.4772 C   0  0  1  0  0  0  0  0  0  0  0  0
   -0.2217   -1.1133   -0.0372 C   0  0  0  0  0  0  0  0  0  0  0  0
   -1.6111   -0.5039   -0.1750 C   0  0  0  0  0  0  0  0  0  0  0  0
   -1.4584    0.9139    0.3617 C   0  0  0  0  0  0  0  0  0  0  0  0
   -0.0285    1.2322    0.0034 C   0  0  0  0  0  0  0  0  0  0  0  0
    0.4592    2.3517    0.0945 O   0  0  0  0  0  0  0  0  0  0  0  0
  2  1  1  1
  2  3  1  0
  3  4  1  0
  4  5  1  0
  5  6  1  0
  6  7  2  0
  6  2  1  0
M  END
