
     RDKit          3D

 18 20  0  0  0  0  0  0  0  0999 V2000
   -3.6589    1.0617    1.2304 C   0  0  0  0  0  0  0  0  0  0  0  0
   -3.0653    0.4712   -0.0424 C   0  0  0  0  0  0  0  0  0  0  0  0
   -2.5622    1.5552   -1.0069 C   0  0  0  0  0  0  0  0  0  0  0  0
   -1.4475    0.9077   -1.8340 C   0  0  0  0  0  0  0  0  0  0  0  0
   -1.3652   -0.5482   -1.3525 C   0  0  1  0  0  0  0  0  0  0  0  0
   -0.0767   -1.3022   -1.7103 C   0  0  0  0  0  0  0  0  0  0  0  0
    1.2096   -0.7297   -1.2199 C   0  0  0  0  0  0  0  0  0  0  0  0
    1.7471    0.4249   -1.5560 N   0  0  0  0  0  0  0  0  0  0  0  0
    2.9378    0.4974   -0.8767 C   0  0  0  0  0  0  0  0  0  0  0  0
    3.8990    1.5177   -0.8546 C   0  0  0  0  0  0  0  0  0  0  0  0
    5.0453    1.3431   -0.0685 C   0  0  0  0  0  0  0  0  0  0  0  0
    5.2301    0.1763    0.6781 C   0  0  0  0  0  0  0  0  0  0  0  0
    4.2816   -0.8535    0.6666 C   0  0  0  0  0  0  0  0  0  0  0  0
    3.1491   -0.6513   -0.1248 C   0  0  0  0  0  0  0  0  0  0  0  0
    2.0442   -1.4228   -0.3742 N   0  0  0  0  0  0  0  0  0  0  0  0
   -1.8572   -0.4963    0.1236 C   0  0  0  0  0  0  0  0  0  0  0  0
   -2.3192   -1.8788    0.6073 C   0  0  0  0  0  0  0  0  0  0  0  0
   -0.8153    0.0429    1.1183 C   0  0  0  0  0  0  0  0  0  0  0  0
  1  2  1  0
  2  3  1  0
  3  4  1  0
  4  5  1  0
  5  6  1  1
  6  7  1  0
  7  8  2  0
  8  9  1  0
  9 10  2  0
 10 11  1  0
 11 12  2  0
 12 13  1  0
 13 14  2  0
 14 15  1  0
  5 16  1  0
 16 17  1  0
 16 18  1  0
 16  2  1  0
 15  7  1  0
 14  9  1  0
M  END
