
     RDKit          3D

 18 20  0  0  0  0  0  0  0  0999 V2000
   -4.2324    0.1937    0.2874 C   0  0  0  0  0  0  0  0  0  0  0  0
   -2.8558    0.0053    0.9344 C   0  0  0  0  0  0  0  0  0  0  0  0
   -2.3128    1.3574    1.4339 C   0  0  0  0  0  0  0  0  0  0  0  0
   -1.2609    1.8213    0.4215 C   0  0  0  0  0  0  0  0  0  0  0  0
   -1.2695    0.7782   -0.7027 C   0  0  1  0  0  0  0  0  0  0  0  0
   -0.0292    0.7629   -1.6074 C   0  0  0  0  0  0  0  0  0  0  0  0
    1.2815    0.5317   -0.9489 C   0  0  0  0  0  0  0  0  0  0  0  0
    1.9482    1.3195   -0.1260 N   0  0  0  0  0  0  0  0  0  0  0  0
    3.0989    0.6196    0.1336 C   0  0  0  0  0  0  0  0  0  0  0  0
    4.1993    0.9209    0.9458 C   0  0  0  0  0  0  0  0  0  0  0  0
    5.2484   -0.0093    1.0098 C   0  0  0  0  0  0  0  0  0  0  0  0
    5.2009   -1.2062    0.2826 C   0  0  0  0  0  0  0  0  0  0  0  0
    4.1077   -1.5204   -0.5345 C   0  0  0  0  0  0  0  0  0  0  0  0
    3.0913   -0.5739   -0.5689 C   0  0  0  0  0  0  0  0  0  0  0  0
    1.9275   -0.6336   -1.2775 O   0  0  0  0  0  0  0  0  0  0  0  0
   -1.7363   -0.5319   -0.0105 C   0  0  0  0  0  0  0  0  0  0  0  0
   -2.2359   -1.5634   -1.0318 C   0  0  0  0  0  0  0  0  0  0  0  0
   -0.6507   -1.2099    0.8514 C   0  0  0  0  0  0  0  0  0  0  0  0
  1  2  1  0
  2  3  1  0
  3  4  1  0
  4  5  1  0
  5  6  1  1
  6  7  1  0
  7  8  2  0
  8  9  1  0
  9 10  2  0
 10 11  1  0
 11 12  2  0
 12 13  1  0
 13 14  2  0
 14 15  1  0
  5 16  1  0
 16 17  1  0
 16 18  1  0
 16  2  1  0
 15  7  1  0
 14  9  1  0
M  END
