
     RDKit          3D

 26 27  0  0  0  0  0  0  0  0999 V2000
   -3.7099   -1.0939   -3.5845 N   0  0  0  0  0  0  0  0  0  0  0  0
   -3.0016   -0.8995   -2.6850 C   0  0  0  0  0  0  0  0  0  0  0  0
   -2.2023   -0.6453   -1.5234 C   0  0  0  0  0  0  0  0  0  0  0  0
   -0.8693   -0.7122   -1.6089 N   0  0  0  0  0  0  0  0  0  0  0  0
   -0.4320   -0.4232   -0.3525 N   0  0  0  0  0  0  0  0  0  0  0  0
    0.9520   -0.3289   -0.0930 C   0  0  0  0  0  0  0  0  0  0  0  0
    1.5022    0.8494    0.4331 C   0  0  0  0  0  0  0  0  0  0  0  0
    0.5947    2.2993    0.6931 Cl  0  0  0  0  0  0  0  0  0  0  0  0
    2.8794    0.9295    0.6773 C   0  0  0  0  0  0  0  0  0  0  0  0
    3.7277   -0.1498    0.3912 C   0  0  0  0  0  0  0  0  0  0  0  0
    5.2094   -0.0365    0.6590 C   0  0  0  0  0  0  0  0  0  0  0  0
    5.9059   -1.1603    0.3393 F   0  0  0  0  0  0  0  0  0  0  0  0
    5.7842    0.9774   -0.0417 F   0  0  0  0  0  0  0  0  0  0  0  0
    5.4754    0.2112    1.9700 F   0  0  0  0  0  0  0  0  0  0  0  0
    3.1713   -1.3169   -0.1484 C   0  0  0  0  0  0  0  0  0  0  0  0
    1.7949   -1.4107   -0.3932 C   0  0  0  0  0  0  0  0  0  0  0  0
    1.2183   -2.9420   -0.9587 Cl  0  0  0  0  0  0  0  0  0  0  0  0
   -1.4925   -0.2407    0.5375 C   0  0  0  0  0  0  0  0  0  0  0  0
   -1.3606   -0.0410    1.8726 N   0  0  0  0  0  0  0  0  0  0  0  0
   -2.6327   -0.3434   -0.2249 C   0  0  0  0  0  0  0  0  0  0  0  0
   -4.3217   -0.1897    0.3341 S   0  0  0  0  0  4  0  0  0  0  0  0
   -4.2973   -0.3658    1.8296 O   0  0  0  0  0  0  0  0  0  0  0  0
   -4.5312    1.5650   -0.0850 C   0  0  0  0  0  0  0  0  0  0  0  0
   -5.7801    2.0051    0.2117 F   0  0  0  0  0  0  0  0  0  0  0  0
   -3.6562    2.3732    0.5623 F   0  0  0  0  0  0  0  0  0  0  0  0
   -4.3506    1.7728   -1.4159 F   0  0  0  0  0  0  0  0  0  0  0  0
  1  2  3  0
  2  3  1  0
  3  4  2  0
  4  5  1  0
  5  6  1  0
  6  7  2  0
  7  8  1  0
  7  9  1  0
  9 10  2  0
 10 11  1  0
 11 12  1  0
 11 13  1  0
 11 14  1  0
 10 15  1  0
 15 16  2  0
 16 17  1  0
  5 18  1  0
 18 19  1  0
 18 20  2  0
 20 21  1  0
 21 22  2  0
 21 23  1  1
 23 24  1  0
 23 25  1  0
 23 26  1  0
 20  3  1  0
 16  6  1  0
M  END
