
     RDKit          3D

 22 24  0  0  0  0  0  0  0  0999 V2000
   -1.6555    0.4488    2.1910 C   0  0  0  0  0  0  0  0  0  0  0  0
   -1.6649   -0.6143    1.0715 C   0  0  0  0  0  0  0  0  0  0  0  0
   -3.1052   -1.1323    0.9222 C   0  0  0  0  0  0  0  0  0  0  0  0
   -0.7584   -1.7950    1.4838 C   0  0  0  0  0  0  0  0  0  0  0  0
    0.6584   -1.4296    1.0475 C   0  0  0  0  0  0  0  0  0  0  0  0
    0.5387   -0.2055    0.1207 C   0  0  1  0  0  0  0  0  0  0  0  0
    1.5009   -0.2877   -1.0797 C   0  0  0  0  0  0  0  0  0  0  0  0
    2.9498   -0.1203   -0.6782 C   0  0  0  0  0  0  0  0  0  0  0  0
    3.4600    1.1500   -0.3729 C   0  0  0  0  0  0  0  0  0  0  0  0
    4.7949    1.3039    0.0080 C   0  0  0  0  0  0  0  0  0  0  0  0
    5.6256    0.1886    0.0855 C   0  0  0  0  0  0  0  0  0  0  0  0
    7.2698    0.3783    0.5558 Cl  0  0  0  0  0  0  0  0  0  0  0  0
    5.1335   -1.0791   -0.2153 C   0  0  0  0  0  0  0  0  0  0  0  0
    3.7987   -1.2330   -0.5964 C   0  0  0  0  0  0  0  0  0  0  0  0
   -0.9759   -0.1293   -0.2509 C   0  0  1  0  0  0  0  0  0  0  0  0
   -1.1815   -1.0719   -1.3168 O   0  0  0  0  0  0  0  0  0  0  0  0
   -1.3115    1.2923   -0.7564 C   0  0  0  0  0  0  0  0  0  0  0  0
   -2.6818    1.4937   -1.1681 N   0  0  0  0  0  0  0  0  0  0  0  0
   -3.2501    1.1520   -2.3564 C   0  0  0  0  0  0  0  0  0  0  0  0
   -4.5025    1.5445   -2.3717 N   0  0  0  0  0  0  0  0  0  0  0  0
   -4.6422    2.1705   -1.1658 C   0  0  0  0  0  0  0  0  0  0  0  0
   -3.5494    2.1739   -0.3974 N   0  0  0  0  0  0  0  0  0  0  0  0
  1  2  1  0
  2  3  1  0
  2  4  1  0
  4  5  1  0
  5  6  1  0
  6  7  1  6
  7  8  1  0
  8  9  2  0
  9 10  1  0
 10 11  2  0
 11 12  1  0
 11 13  1  0
 13 14  2  0
  6 15  1  0
 15 16  1  6
 15 17  1  0
 17 18  1  0
 18 19  1  0
 19 20  2  0
 20 21  1  0
 21 22  2  0
 15  2  1  0
 22 18  1  0
 14  8  1  0
M  END
