
     RDKit          3D

 26 28  0  0  0  0  0  0  0  0999 V2000
    4.1498    2.5561    0.0651 C   0  0  0  0  0  0  0  0  0  0  0  0
    4.6947    1.2138    0.4959 C   0  0  0  0  0  0  0  0  0  0  0  0
    6.1631    1.2551    0.8475 C   0  0  0  0  0  0  0  0  0  0  0  0
    4.0804   -0.0136   -0.1582 C   0  0  1  0  0  0  0  0  0  0  0  0
    4.9158   -1.1672   -0.5297 C   0  0  0  0  0  0  0  0  0  0  0  0
    5.6665   -1.3042   -1.6334 C   0  0  0  0  0  0  0  0  0  0  0  0
    6.5717   -2.7517   -1.8982 Cl  0  0  0  0  0  0  0  0  0  0  0  0
    5.7716   -0.0665   -2.8309 Cl  0  0  0  0  0  0  0  0  0  0  0  0
    3.8200    0.2683    1.3084 C   0  0  2  0  0  0  0  0  0  0  0  0
    2.4848    0.6936    1.7899 C   0  0  0  0  0  0  0  0  0  0  0  0
    2.3560    1.4882    2.7079 O   0  0  0  0  0  0  0  0  0  0  0  0
    1.4824    0.0740    1.1199 O   0  0  0  0  0  0  0  0  0  0  0  0
    0.1785    0.4609    1.5620 C   0  0  0  0  0  0  0  0  0  0  0  0
   -0.8566   -0.2459    0.7220 C   0  0  0  0  0  0  0  0  0  0  0  0
   -0.7843   -1.6313    0.5067 C   0  0  0  0  0  0  0  0  0  0  0  0
   -1.7531   -2.2857   -0.2575 C   0  0  0  0  0  0  0  0  0  0  0  0
   -2.8160   -1.5667   -0.8019 C   0  0  0  0  0  0  0  0  0  0  0  0
   -2.9166   -0.1950   -0.5631 C   0  0  0  0  0  0  0  0  0  0  0  0
   -3.9281    0.5769   -1.0895 O   0  0  0  0  0  0  0  0  0  0  0  0
   -5.2162    0.1188   -0.9298 C   0  0  0  0  0  0  0  0  0  0  0  0
   -5.7161   -0.3134    0.3010 C   0  0  0  0  0  0  0  0  0  0  0  0
   -7.0444   -0.7289    0.4013 C   0  0  0  0  0  0  0  0  0  0  0  0
   -7.8726   -0.6976   -0.7210 C   0  0  0  0  0  0  0  0  0  0  0  0
   -7.3770   -0.2455   -1.9441 C   0  0  0  0  0  0  0  0  0  0  0  0
   -6.0493    0.1712   -2.0472 C   0  0  0  0  0  0  0  0  0  0  0  0
   -1.9351    0.4663    0.1781 C   0  0  0  0  0  0  0  0  0  0  0  0
  1  2  1  0
  2  3  1  0
  2  4  1  0
  4  5  1  1
  5  6  2  3
  6  7  1  0
  6  8  1  0
  4  9  1  0
  9 10  1  6
 10 11  2  0
 10 12  1  0
 12 13  1  0
 13 14  1  0
 14 15  2  0
 15 16  1  0
 16 17  2  0
 17 18  1  0
 18 19  1  0
 19 20  1  0
 20 21  2  0
 21 22  1  0
 22 23  2  0
 23 24  1  0
 24 25  2  0
 18 26  2  0
  9  2  1  0
 26 14  1  0
 25 20  1  0
M  END
