
     RDKit          3D

 13 14  0  0  0  0  0  0  0  0999 V2000
    4.2445    0.1647    0.3295 C   0  0  0  0  0  0  0  0  0  0  0  0
    3.2431    1.0270   -0.1930 O   0  0  0  0  0  0  0  0  0  0  0  0
    2.0073    0.3628   -0.4744 C   0  0  0  0  0  0  0  0  0  0  0  0
    1.2189    1.2690   -1.4211 C   0  0  0  0  0  0  0  0  0  0  0  0
   -0.1453    0.6776   -1.7507 C   0  0  0  0  0  0  0  0  0  0  0  0
   -0.9773    0.4149   -0.4855 C   0  0  0  0  0  0  0  0  0  0  0  0
   -0.1970   -0.4361    0.5376 C   0  0  0  0  0  0  0  0  0  0  0  0
    1.2090    0.1218    0.8097 C   0  0  0  0  0  0  0  0  0  0  0  0
   -0.9707   -0.5724    1.8662 C   0  0  0  0  0  0  0  0  0  0  0  0
   -2.4874   -0.4545    1.7168 C   0  0  0  0  0  0  0  0  0  0  0  0
   -2.9552   -0.9948    0.3779 C   0  0  0  0  0  0  0  0  0  0  0  0
   -2.3599   -0.2126   -0.7985 C   0  0  2  0  0  0  0  0  0  0  0  0
   -2.3031   -1.1133   -1.9030 O   0  0  0  0  0  0  0  0  0  0  0  0
  1  2  1  0
  2  3  1  0
  3  4  1  0
  4  5  1  0
  5  6  1  0
  6  7  1  0
  7  8  1  0
  7  9  1  0
  9 10  1  0
 10 11  1  0
 11 12  1  0
 12 13  1  6
  8  3  1  0
 12  6  1  0
M  END
