
     RDKit          3D

 18 18  0  0  0  0  0  0  0  0999 V2000
   -2.6614    2.9496    0.0005 C   0  0  0  0  0  0  0  0  0  0  0  0
   -2.6510    1.4730   -0.3399 C   0  0  0  0  0  0  0  0  0  0  0  0
   -1.4890    1.1935   -1.1008 O   0  0  0  0  0  0  0  0  0  0  0  0
   -1.0509   -0.3479   -1.3393 P   0  0  0  0  0  5  0  0  0  0  0  0
    0.2377   -0.6230   -2.7640 S   0  0  0  0  0  0  0  0  0  0  0  0
   -2.4888   -1.0632   -1.5716 O   0  0  0  0  0  0  0  0  0  0  0  0
   -2.5619   -2.4742   -1.4474 C   0  0  0  0  0  0  0  0  0  0  0  0
   -3.8141   -2.9598   -2.1508 C   0  0  0  0  0  0  0  0  0  0  0  0
   -0.6708   -0.8562    0.1556 O   0  0  0  0  0  0  0  0  0  0  0  0
    0.5215   -0.5121    0.7255 C   0  0  0  0  0  0  0  0  0  0  0  0
    1.5944   -1.3961    0.6299 C   0  0  0  0  0  0  0  0  0  0  0  0
    2.8179   -1.0632    1.2139 C   0  0  0  0  0  0  0  0  0  0  0  0
    2.9621    0.1482    1.9014 C   0  0  0  0  0  0  0  0  0  0  0  0
    4.5614    0.5654    2.6337 S   0  0  0  0  0  4  0  0  0  0  0  0
    5.3337    1.1893    1.1164 C   0  0  0  0  0  0  0  0  0  0  0  0
    4.3096    1.7510    3.5188 O   0  0  0  0  0  0  0  0  0  0  0  0
    1.8654    1.0109    2.0196 C   0  0  0  0  0  0  0  0  0  0  0  0
    0.6421    0.6802    1.4318 C   0  0  0  0  0  0  0  0  0  0  0  0
  1  2  1  0
  2  3  1  0
  3  4  1  0
  4  5  2  0
  4  6  1  0
  6  7  1  0
  7  8  1  0
  4  9  1  0
  9 10  1  0
 10 11  2  0
 11 12  1  0
 12 13  2  0
 13 14  1  0
 14 15  1  6
 14 16  2  0
 13 17  1  0
 17 18  2  0
 18 10  1  0
M  END
