
     RDKit          3D

 13 14  0  0  0  0  0  0  0  0999 V2000
    4.0493    0.2219    0.5313 C   0  0  0  0  0  0  0  0  0  0  0  0
    2.8436    0.9313    0.3315 O   0  0  0  0  0  0  0  0  0  0  0  0
    1.6983    0.2549   -0.5916 P   0  0  1  0  0  5  0  0  0  0  0  0
    2.1738   -0.1003   -2.4370 S   0  0  0  0  0  0  0  0  0  0  0  0
    1.2719   -1.0187    0.3076 O   0  0  0  0  0  0  0  0  0  0  0  0
    0.0262   -1.6033   -0.0236 C   0  0  0  0  0  0  0  0  0  0  0  0
   -1.0784   -0.5859   -0.0818 C   0  0  0  0  0  0  0  0  0  0  0  0
   -2.4146   -1.0061   -0.0067 C   0  0  0  0  0  0  0  0  0  0  0  0
   -3.4561   -0.0778   -0.0722 C   0  0  0  0  0  0  0  0  0  0  0  0
   -3.1745    1.2792   -0.2183 C   0  0  0  0  0  0  0  0  0  0  0  0
   -1.8518    1.7081   -0.3055 C   0  0  0  0  0  0  0  0  0  0  0  0
   -0.8163    0.7770   -0.2484 C   0  0  0  0  0  0  0  0  0  0  0  0
    0.4582    1.2601   -0.3394 O   0  0  0  0  0  0  0  0  0  0  0  0
  1  2  1  0
  3  2  1  1
  3  4  2  0
  3  5  1  0
  5  6  1  0
  6  7  1  0
  7  8  2  0
  8  9  1  0
  9 10  2  0
 10 11  1  0
 11 12  2  0
 12 13  1  0
 13  3  1  0
 12  7  1  0
M  END
