
     RDKit          3D

 27 29  0  0  0  0  0  0  0  0999 V2000
   -1.8843   -1.7684    2.4352 C   0  0  0  0  0  0  0  0  0  0  0  0
   -2.2979   -1.1698    1.0806 C   0  0  1  0  0  0  0  0  0  0  0  0
   -3.0295   -2.2002    0.4165 O   0  0  0  0  0  0  0  0  0  0  0  0
   -3.2795    0.0066    1.3385 C   0  0  0  0  0  0  0  0  0  0  0  0
   -3.6866    0.6891    0.1262 N   0  0  0  0  0  0  0  0  0  0  0  0
   -3.6141    2.0157   -0.1560 C   0  0  0  0  0  0  0  0  0  0  0  0
   -4.0889    2.2319   -1.3607 N   0  0  0  0  0  0  0  0  0  0  0  0
   -4.4507    0.9831   -1.7798 C   0  0  0  0  0  0  0  0  0  0  0  0
   -4.2273    0.0020   -0.8998 N   0  0  0  0  0  0  0  0  0  0  0  0
   -1.0181   -0.7955    0.3089 C   0  0  0  0  0  0  0  0  0  0  0  0
   -0.3650    0.4159    0.6472 C   0  0  0  0  0  0  0  0  0  0  0  0
    0.7887    0.8465   -0.0105 C   0  0  0  0  0  0  0  0  0  0  0  0
    1.3439    0.0594   -1.0087 C   0  0  0  0  0  0  0  0  0  0  0  0
    2.4537    0.4337   -1.7294 O   0  0  0  0  0  0  0  0  0  0  0  0
    3.5304    0.9175   -1.0224 C   0  0  0  0  0  0  0  0  0  0  0  0
    4.0774    0.2366    0.0691 C   0  0  0  0  0  0  0  0  0  0  0  0
    5.1937    0.7617    0.7238 C   0  0  0  0  0  0  0  0  0  0  0  0
    5.7639    1.9528    0.2742 C   0  0  0  0  0  0  0  0  0  0  0  0
    7.1381    2.5992    1.0829 Cl  0  0  0  0  0  0  0  0  0  0  0  0
    5.2331    2.6206   -0.8295 C   0  0  0  0  0  0  0  0  0  0  0  0
    4.1173    2.0964   -1.4849 C   0  0  0  0  0  0  0  0  0  0  0  0
    0.7359   -1.1424   -1.3585 C   0  0  0  0  0  0  0  0  0  0  0  0
   -0.4279   -1.6065   -0.6998 C   0  0  0  0  0  0  0  0  0  0  0  0
   -0.9542   -2.9696   -1.1271 C   0  0  0  0  0  0  0  0  0  0  0  0
   -1.1107   -3.8412   -0.0936 F   0  0  0  0  0  0  0  0  0  0  0  0
   -0.1007   -3.6124   -1.9848 F   0  0  0  0  0  0  0  0  0  0  0  0
   -2.1341   -2.9064   -1.8031 F   0  0  0  0  0  0  0  0  0  0  0  0
  2  1  1  1
  2  3  1  0
  2  4  1  0
  4  5  1  0
  5  6  1  0
  6  7  2  0
  7  8  1  0
  8  9  2  0
  2 10  1  0
 10 11  2  0
 11 12  1  0
 12 13  2  0
 13 14  1  0
 14 15  1  0
 15 16  2  0
 16 17  1  0
 17 18  2  0
 18 19  1  0
 18 20  1  0
 20 21  2  0
 13 22  1  0
 22 23  2  0
 23 24  1  0
 24 25  1  0
 24 26  1  0
 24 27  1  0
  9  5  1  0
 23 10  1  0
 21 15  1  0
M  END
