
     RDKit          3D

  6  5  0  0  0  0  0  0  0  0999 V2000
   -1.6593   -0.4668   -0.1216 C   0  0  0  0  0  0  0  0  0  0  0  0
   -0.5798    0.3898   -0.7772 C   0  0  2  0  0  0  0  0  0  0  0  0
    0.8625   -0.0182   -0.4084 C   0  0  1  0  0  0  0  0  0  0  0  0
    1.1844    0.1154    1.0766 C   0  0  0  0  0  0  0  0  0  0  0  0
    1.1034   -1.3664   -0.8109 O   0  0  0  0  0  0  0  0  0  0  0  0
   -0.8091    1.7654   -0.4647 O   0  0  0  0  0  0  0  0  0  0  0  0
  2  1  1  1
  2  3  1  0
  3  4  1  1
  3  5  1  0
  2  6  1  0
M  END
