
     RDKit          3D

 15 15  0  0  0  0  0  0  0  0999 V2000
   -5.5724    0.7196   -1.1542 C   0  0  0  0  0  0  0  0  0  0  0  0
   -4.1701    0.4306   -0.7034 C   0  0  0  0  0  0  0  0  0  0  0  0
   -3.7820    0.5891    0.5740 C   0  0  0  0  0  0  0  0  0  0  0  0
   -2.3772    0.3531    1.0559 C   0  0  0  0  0  0  0  0  0  0  0  0
   -1.3412    0.2136   -0.0823 C   0  0  2  0  0  0  0  0  0  0  0  0
   -1.9324   -0.6637   -1.2026 C   0  0  0  0  0  0  0  0  0  0  0  0
   -3.2177   -0.0509   -1.7688 C   0  0  0  0  0  0  0  0  0  0  0  0
    0.0224   -0.2354    0.4663 C   0  0  0  0  0  0  0  0  0  0  0  0
    0.5240   -1.4672    0.2639 C   0  0  0  0  0  0  0  0  0  0  0  0
    0.7612    0.8465    1.2521 C   0  0  0  0  0  0  0  0  0  0  0  0
    2.2423    0.6336    1.6245 C   0  0  0  0  0  0  0  0  0  0  0  0
    3.1666    0.6797    0.4343 C   0  0  0  0  0  0  0  0  0  0  0  0
    4.1678   -0.1678    0.1250 C   0  0  0  0  0  0  0  0  0  0  0  0
    4.9782    0.0328   -1.1299 C   0  0  0  0  0  0  0  0  0  0  0  0
    4.5903   -1.3556    0.9443 C   0  0  0  0  0  0  0  0  0  0  0  0
  1  2  1  0
  2  3  2  0
  3  4  1  0
  4  5  1  0
  5  6  1  0
  6  7  1  0
  5  8  1  1
  8  9  2  0
  8 10  1  0
 10 11  1  0
 11 12  1  0
 12 13  2  3
 13 14  1  0
 13 15  1  0
  7  2  1  0
M  END
