
     RDKit          3D

 18 19  0  0  0  0  0  0  0  0999 V2000
   -2.8849    1.6450   -1.3962 C   0  0  0  0  0  0  0  0  0  0  0  0
   -2.9577    0.3188   -1.2129 C   0  0  0  0  0  0  0  0  0  0  0  0
   -2.2054   -0.5194   -0.2086 C   0  0  1  0  0  0  0  0  0  0  0  0
   -3.1368   -1.0900    0.8558 C   0  0  0  0  0  0  0  0  0  0  0  0
   -1.6114   -1.6026   -0.9190 O   0  0  0  0  0  0  0  0  0  0  0  0
   -0.2528   -1.5103   -0.8342 C   0  0  0  0  0  0  0  0  0  0  0  0
    0.4516   -2.3077   -1.4346 O   0  0  0  0  0  0  0  0  0  0  0  0
    0.1241   -0.4662   -0.0385 N   0  0  0  0  0  0  0  0  0  0  0  0
    1.4718   -0.0984    0.2804 C   0  0  0  0  0  0  0  0  0  0  0  0
    1.7677    1.1135    0.9301 C   0  0  0  0  0  0  0  0  0  0  0  0
    3.0851    1.4750    1.2382 C   0  0  0  0  0  0  0  0  0  0  0  0
    3.3946    2.9739    2.0273 Cl  0  0  0  0  0  0  0  0  0  0  0  0
    4.1462    0.6446    0.9109 C   0  0  0  0  0  0  0  0  0  0  0  0
    3.8769   -0.5543    0.2681 C   0  0  0  0  0  0  0  0  0  0  0  0
    5.1782   -1.6042   -0.1440 Cl  0  0  0  0  0  0  0  0  0  0  0  0
    2.5626   -0.9234   -0.0460 C   0  0  0  0  0  0  0  0  0  0  0  0
   -1.0035    0.1505    0.4399 C   0  0  0  0  0  0  0  0  0  0  0  0
   -1.0941    1.0536    1.2632 O   0  0  0  0  0  0  0  0  0  0  0  0
  1  2  2  0
  2  3  1  0
  3  4  1  1
  3  5  1  0
  5  6  1  0
  6  7  2  0
  6  8  1  0
  8  9  1  0
  9 10  2  0
 10 11  1  0
 11 12  1  0
 11 13  2  0
 13 14  1  0
 14 15  1  0
 14 16  2  0
  8 17  1  0
 17 18  2  0
 17  3  1  0
 16  9  1  0
M  END
