
     RDKit          3D

 13 13  0  0  0  0  0  0  0  0999 V2000
    3.6472    0.2697    0.7397 C   0  0  0  0  0  0  0  0  0  0  0  0
    2.4234   -0.3342    0.0987 C   0  0  0  0  0  0  0  0  0  0  0  0
    2.5176   -1.2948   -0.6656 O   0  0  0  0  0  0  0  0  0  0  0  0
    1.0796    0.3158    0.4094 C   0  0  1  0  0  0  0  0  0  0  0  0
    0.9557    1.6393   -0.3431 C   0  0  0  0  0  0  0  0  0  0  0  0
   -0.0677   -0.6771    0.1489 C   0  0  2  0  0  0  0  0  0  0  0  0
   -0.4370   -0.9585   -1.3064 C   0  0  0  0  0  0  0  0  0  0  0  0
   -1.9362   -0.8826   -1.3291 C   0  0  0  0  0  0  0  0  0  0  0  0
   -2.6225   -1.1008   -2.3161 O   0  0  0  0  0  0  0  0  0  0  0  0
   -2.3805   -0.4873   -0.1014 N   0  0  0  0  0  0  0  0  0  0  0  0
   -3.7651   -0.1926    0.1784 C   0  0  0  0  0  0  0  0  0  0  0  0
   -1.3638   -0.2103    0.7635 C   0  0  0  0  0  0  0  0  0  0  0  0
   -1.4638    0.3174    1.8612 O   0  0  0  0  0  0  0  0  0  0  0  0
  1  2  1  0
  2  3  2  0
  2  4  1  0
  4  5  1  6
  4  6  1  0
  6  7  1  6
  7  8  1  0
  8  9  2  0
  8 10  1  0
 10 11  1  0
 10 12  1  0
 12 13  2  0
 12  6  1  0
M  END
