
     RDKit          3D

 11 12  0  0  0  0  0  0  0  0999 V2000
   -1.3222   -1.2190   -1.8138 O   0  0  0  0  0  0  0  0  0  0  0  0
   -1.0477   -1.2477   -0.4118 C   0  0  2  0  0  0  0  0  0  0  0  0
   -2.1666   -0.5002    0.3164 C   0  0  0  0  0  0  0  0  0  0  0  0
   -2.0190    1.0071    0.1288 C   0  0  0  0  0  0  0  0  0  0  0  0
   -0.7026    1.4939    0.7308 C   0  0  0  0  0  0  0  0  0  0  0  0
    0.4839    0.6444    0.3443 C   0  0  0  0  0  0  0  0  0  0  0  0
    1.7770    1.1509    0.5444 C   0  0  0  0  0  0  0  0  0  0  0  0
    2.8982    0.3825    0.2319 C   0  0  0  0  0  0  0  0  0  0  0  0
    2.7410   -0.9029   -0.2775 C   0  0  0  0  0  0  0  0  0  0  0  0
    1.4618   -1.4222   -0.4714 C   0  0  0  0  0  0  0  0  0  0  0  0
    0.3235   -0.6620   -0.1548 C   0  0  0  0  0  0  0  0  0  0  0  0
  2  1  1  6
  2  3  1  0
  3  4  1  0
  4  5  1  0
  5  6  1  0
  6  7  2  0
  7  8  1  0
  8  9  2  0
  9 10  1  0
 10 11  2  0
 11  2  1  0
 11  6  1  0
M  END
