
     RDKit          3D

 13 14  0  0  0  0  0  0  0  0999 V2000
    4.1030    0.0142    0.1878 C   0  0  0  0  0  0  0  0  0  0  0  0
    2.9104    0.6985    0.5139 O   0  0  0  0  0  0  0  0  0  0  0  0
    1.5959   -0.1765    0.8710 P   0  0  2  0  0  5  0  0  0  0  0  0
    1.7286   -1.3462    2.4112 S   0  0  0  0  0  0  0  0  0  0  0  0
    1.2815   -0.8785   -0.5505 O   0  0  0  0  0  0  0  0  0  0  0  0
   -0.0253   -1.4040   -0.6899 C   0  0  0  0  0  0  0  0  0  0  0  0
   -1.0814   -0.3943   -0.3379 C   0  0  0  0  0  0  0  0  0  0  0  0
   -2.4000   -0.5868   -0.7761 C   0  0  0  0  0  0  0  0  0  0  0  0
   -3.3989    0.3329   -0.4487 C   0  0  0  0  0  0  0  0  0  0  0  0
   -3.0927    1.4516    0.3238 C   0  0  0  0  0  0  0  0  0  0  0  0
   -1.7892    1.6482    0.7747 C   0  0  0  0  0  0  0  0  0  0  0  0
   -0.7978    0.7231    0.4525 C   0  0  0  0  0  0  0  0  0  0  0  0
    0.4599    0.9718    0.9242 O   0  0  0  0  0  0  0  0  0  0  0  0
  1  2  1  0
  3  2  1  6
  3  4  2  0
  3  5  1  0
  5  6  1  0
  6  7  1  0
  7  8  2  0
  8  9  1  0
  9 10  2  0
 10 11  1  0
 11 12  2  0
 12 13  1  0
 13  3  1  0
 12  7  1  0
M  END
