
     RDKit          3D

 26 28  0  0  0  0  0  0  0  0999 V2000
   -4.9725   -1.8109   -0.7106 C   0  0  0  0  0  0  0  0  0  0  0  0
   -4.3590   -0.4937   -0.3012 C   0  0  0  0  0  0  0  0  0  0  0  0
   -3.4145    0.0653   -1.3423 C   0  0  0  0  0  0  0  0  0  0  0  0
   -5.2154    0.4380    0.5421 C   0  0  2  0  0  0  0  0  0  0  0  0
   -5.1953    1.8909    0.3057 C   0  0  0  0  0  0  0  0  0  0  0  0
   -5.8475    2.5666   -0.6536 C   0  0  0  0  0  0  0  0  0  0  0  0
   -6.8486    1.7758   -1.8166 Cl  0  0  0  0  0  0  0  0  0  0  0  0
   -5.7080    4.2858   -0.7601 Cl  0  0  0  0  0  0  0  0  0  0  0  0
   -4.0534   -0.2973    1.1782 C   0  0  2  0  0  0  0  0  0  0  0  0
   -2.8268    0.3802    1.6570 C   0  0  0  0  0  0  0  0  0  0  0  0
   -2.8625    1.3117    2.4468 O   0  0  0  0  0  0  0  0  0  0  0  0
   -1.7082   -0.2046    1.1621 O   0  0  0  0  0  0  0  0  0  0  0  0
   -0.4961    0.4154    1.5997 C   0  0  0  0  0  0  0  0  0  0  0  0
    0.6711   -0.2493    0.9123 C   0  0  0  0  0  0  0  0  0  0  0  0
    0.7909   -1.6477    0.8892 C   0  0  0  0  0  0  0  0  0  0  0  0
    1.8773   -2.2596    0.2607 C   0  0  0  0  0  0  0  0  0  0  0  0
    2.8666   -1.4815   -0.3384 C   0  0  0  0  0  0  0  0  0  0  0  0
    2.7749   -0.0895   -0.2908 C   0  0  0  0  0  0  0  0  0  0  0  0
    3.7002    0.7369   -0.8879 O   0  0  0  0  0  0  0  0  0  0  0  0
    5.0299    0.4786   -0.6432 C   0  0  0  0  0  0  0  0  0  0  0  0
    5.5326    0.2531    0.6407 C   0  0  0  0  0  0  0  0  0  0  0  0
    6.8992    0.0354    0.8211 C   0  0  0  0  0  0  0  0  0  0  0  0
    7.7613    0.0594   -0.2758 C   0  0  0  0  0  0  0  0  0  0  0  0
    7.2604    0.3080   -1.5538 C   0  0  0  0  0  0  0  0  0  0  0  0
    5.8946    0.5254   -1.7370 C   0  0  0  0  0  0  0  0  0  0  0  0
    1.6776    0.5245    0.3166 C   0  0  0  0  0  0  0  0  0  0  0  0
  1  2  1  0
  2  3  1  0
  2  4  1  0
  4  5  1  6
  5  6  2  3
  6  7  1  0
  6  8  1  0
  4  9  1  0
  9 10  1  6
 10 11  2  0
 10 12  1  0
 12 13  1  0
 13 14  1  0
 14 15  2  0
 15 16  1  0
 16 17  2  0
 17 18  1  0
 18 19  1  0
 19 20  1  0
 20 21  2  0
 21 22  1  0
 22 23  2  0
 23 24  1  0
 24 25  2  0
 18 26  2  0
  9  2  1  0
 26 14  1  0
 25 20  1  0
M  END
