
     RDKit          3D

 11 11  0  0  0  0  0  0  0  0999 V2000
    3.9012    0.2405   -0.2738 C   0  0  0  0  0  0  0  0  0  0  0  0
    2.4008    0.2260   -0.2436 C   0  0  0  0  0  0  0  0  0  0  0  0
    1.6614    0.3517   -1.3575 C   0  0  0  0  0  0  0  0  0  0  0  0
    0.1574    0.2932   -1.3801 C   0  0  0  0  0  0  0  0  0  0  0  0
   -0.5070   -0.1779   -0.0571 C   0  0  1  0  0  0  0  0  0  0  0  0
    0.2742    0.3982    1.1414 C   0  0  0  0  0  0  0  0  0  0  0  0
    1.7651    0.0418    1.1068 C   0  0  0  0  0  0  0  0  0  0  0  0
   -2.0161    0.2372   -0.0264 C   0  0  0  0  0  0  0  0  0  0  0  0
   -2.8086   -0.3353   -1.2123 C   0  0  0  0  0  0  0  0  0  0  0  0
   -2.7385   -0.1683    1.2671 C   0  0  0  0  0  0  0  0  0  0  0  0
   -0.4295   -1.6119   -0.0147 O   0  0  0  0  0  0  0  0  0  0  0  0
  1  2  1  0
  2  3  2  0
  3  4  1  0
  4  5  1  0
  5  6  1  0
  6  7  1  0
  5  8  1  0
  8  9  1  0
  8 10  1  0
  5 11  1  1
  7  2  1  0
M  END
