
     RDKit          3D

 11 11  0  0  0  0  0  0  0  0999 V2000
    3.8391    0.0025    0.1895 C   0  0  0  0  0  0  0  0  0  0  0  0
    2.3384    0.0115    0.1612 C   0  0  0  0  0  0  0  0  0  0  0  0
    1.6032    0.1014    1.2826 C   0  0  0  0  0  0  0  0  0  0  0  0
    0.0965    0.0699    1.3058 C   0  0  0  0  0  0  0  0  0  0  0  0
   -0.5550   -0.3837   -0.0283 C   0  0  2  0  0  0  0  0  0  0  0  0
    0.2064    0.2438   -1.2117 C   0  0  0  0  0  0  0  0  0  0  0  0
    1.7003   -0.1064   -1.1980 C   0  0  0  0  0  0  0  0  0  0  0  0
   -2.0897   -0.0825   -0.0377 C   0  0  0  0  0  0  0  0  0  0  0  0
   -2.4431    1.4101   -0.0335 C   0  0  0  0  0  0  0  0  0  0  0  0
   -2.8294   -0.7537   -1.2068 C   0  0  0  0  0  0  0  0  0  0  0  0
   -0.4085   -1.8174   -0.0850 O   0  0  0  0  0  0  0  0  0  0  0  0
  1  2  1  0
  2  3  2  0
  3  4  1  0
  4  5  1  0
  5  6  1  0
  6  7  1  0
  5  8  1  0
  8  9  1  0
  8 10  1  0
  5 11  1  6
  7  2  1  0
M  END
