
     RDKit          3D

 19 20  0  0  0  0  0  0  0  0999 V2000
    0.6558    0.2626   -0.9364 C   0  0  2  0  0  0  0  0  0  0  0  0
   -0.1576    0.0699    0.3833 C   0  0  2  0  0  0  0  0  0  0  0  0
   -1.5659   -0.4146    0.0529 C   0  0  0  0  0  0  0  0  0  0  0  0
   -2.3090    0.1007   -0.7729 O   0  0  0  0  0  0  0  0  0  0  0  0
   -1.8754   -1.5085    0.8085 O   0  0  0  0  0  0  0  0  0  0  0  0
   -3.1824   -2.0628    0.5982 C   0  0  0  0  0  0  0  0  0  0  0  0
   -3.1516   -3.0478   -0.5554 C   0  0  0  0  0  0  0  0  0  0  0  0
   -0.2284    1.3062    1.2755 C   0  0  0  0  0  0  0  0  0  0  0  0
   -0.7017    2.5368    0.7883 C   0  0  0  0  0  0  0  0  0  0  0  0
   -0.7610    3.6541    1.6227 C   0  0  0  0  0  0  0  0  0  0  0  0
   -0.3527    3.5452    2.9454 C   0  0  0  0  0  0  0  0  0  0  0  0
   -0.4105    4.6177    3.7456 F   0  0  0  0  0  0  0  0  0  0  0  0
    0.1123    2.3383    3.4518 C   0  0  0  0  0  0  0  0  0  0  0  0
    0.1729    1.2189    2.6202 C   0  0  0  0  0  0  0  0  0  0  0  0
    0.6996   -1.0575   -1.7498 C   0  0  0  0  0  0  0  0  0  0  0  0
    1.8209   -1.0425   -2.7814 C   0  0  0  0  0  0  0  0  0  0  0  0
    3.1789   -0.8190   -2.1146 C   0  0  0  0  0  0  0  0  0  0  0  0
    3.0628   -0.1922   -0.7253 C   0  0  0  0  0  0  0  0  0  0  0  0
    2.0134    0.8150   -0.7060 N   0  0  0  0  0  0  0  0  0  0  0  0
  1  2  1  0
  2  3  1  6
  3  4  2  0
  3  5  1  0
  5  6  1  0
  6  7  1  0
  2  8  1  0
  8  9  2  0
  9 10  1  0
 10 11  2  0
 11 12  1  0
 11 13  1  0
 13 14  2  0
  1 15  1  1
 15 16  1  0
 16 17  1  0
 17 18  1  0
 18 19  1  0
 19  1  1  0
 14  8  1  0
M  END
