
     RDKit          3D

 13 14  0  0  0  0  0  0  0  0999 V2000
    3.8002    0.7947    0.7831 C   0  0  0  0  0  0  0  0  0  0  0  0
    3.0245   -0.3814    0.6724 O   0  0  0  0  0  0  0  0  0  0  0  0
    1.7768   -0.3823   -0.3593 P   0  0  1  0  0  5  0  0  0  0  0  0
    2.2043   -0.1147   -2.2311 S   0  0  0  0  0  0  0  0  0  0  0  0
    1.0750   -1.7861    0.0226 O   0  0  0  0  0  0  0  0  0  0  0  0
   -0.2578   -1.9408   -0.4251 C   0  0  0  0  0  0  0  0  0  0  0  0
   -1.1234   -0.7744   -0.0368 C   0  0  0  0  0  0  0  0  0  0  0  0
   -2.5193   -0.9120   -0.0490 C   0  0  0  0  0  0  0  0  0  0  0  0
   -3.3423    0.1622    0.2965 C   0  0  0  0  0  0  0  0  0  0  0  0
   -2.7804    1.3865    0.6532 C   0  0  0  0  0  0  0  0  0  0  0  0
   -1.3955    1.5395    0.6585 C   0  0  0  0  0  0  0  0  0  0  0  0
   -0.5787    0.4671    0.3044 C   0  0  0  0  0  0  0  0  0  0  0  0
    0.7706    0.6799    0.3287 O   0  0  0  0  0  0  0  0  0  0  0  0
  1  2  1  0
  3  2  1  1
  3  4  2  0
  3  5  1  0
  5  6  1  0
  6  7  1  0
  7  8  2  0
  8  9  1  0
  9 10  2  0
 10 11  1  0
 11 12  2  0
 12 13  1  0
 13  3  1  0
 12  7  1  0
M  END
