
     RDKit          3D

  9  9  0  0  0  0  0  0  0  0999 V2000
    0.1838    0.4200   -2.4750 C   0  0  0  0  0  0  0  0  0  0  0  0
   -0.3654    0.9697   -1.1614 C   0  0  1  0  0  0  0  0  0  0  0  0
   -0.1461    0.1189    0.0738 C   0  0  0  0  0  0  0  0  0  0  0  0
    0.4440   -1.1536    0.0423 C   0  0  0  0  0  0  0  0  0  0  0  0
    0.5967   -1.9036    1.2129 C   0  0  0  0  0  0  0  0  0  0  0  0
    0.1607   -1.3957    2.4339 C   0  0  0  0  0  0  0  0  0  0  0  0
   -0.4276   -0.1360    2.4874 C   0  0  0  0  0  0  0  0  0  0  0  0
   -0.5801    0.6121    1.3182 C   0  0  0  0  0  0  0  0  0  0  0  0
    0.2264    2.2503   -0.9337 O   0  0  0  0  0  0  0  0  0  0  0  0
  2  1  1  6
  2  3  1  0
  3  4  2  0
  4  5  1  0
  5  6  2  0
  6  7  1  0
  7  8  2  0
  2  9  1  0
  8  3  1  0
M  END
