
     RDKit          3D

 13 13  0  0  0  0  0  0  0  0999 V2000
   -2.8525    1.1531    1.0763 C   0  0  0  0  0  0  0  0  0  0  0  0
   -2.3156   -0.2304    0.8175 C   0  0  0  0  0  0  0  0  0  0  0  0
   -2.6409   -1.1732    1.5452 O   0  0  0  0  0  0  0  0  0  0  0  0
   -1.3621   -0.4719   -0.3550 C   0  0  1  0  0  0  0  0  0  0  0  0
   -1.2779    0.6841   -1.3522 C   0  0  0  0  0  0  0  0  0  0  0  0
   -0.0063   -0.9550    0.1880 C   0  0  1  0  0  0  0  0  0  0  0  0
    0.8571   -1.6827   -0.8413 C   0  0  0  0  0  0  0  0  0  0  0  0
    2.2263   -1.0948   -0.6628 C   0  0  0  0  0  0  0  0  0  0  0  0
    3.2159   -1.4609   -1.2782 O   0  0  0  0  0  0  0  0  0  0  0  0
    2.1570   -0.0759    0.2405 N   0  0  0  0  0  0  0  0  0  0  0  0
    3.2736    0.7858    0.5459 C   0  0  0  0  0  0  0  0  0  0  0  0
    0.8849    0.1633    0.6686 C   0  0  0  0  0  0  0  0  0  0  0  0
    0.5074    1.1145    1.3358 O   0  0  0  0  0  0  0  0  0  0  0  0
  1  2  1  0
  2  3  2  0
  2  4  1  0
  4  5  1  1
  4  6  1  0
  6  7  1  6
  7  8  1  0
  8  9  2  0
  8 10  1  0
 10 11  1  0
 10 12  1  0
 12 13  2  0
 12  6  1  0
M  END
