
     RDKit          3D

 22 23  0  0  0  0  0  0  0  0999 V2000
   -5.2098   -1.1756    2.1150 C   0  0  0  0  0  0  0  0  0  0  0  0
   -4.7520   -0.5489    0.9158 O   0  0  0  0  0  0  0  0  0  0  0  0
   -3.7112    0.3185    1.1043 C   0  0  0  0  0  0  0  0  0  0  0  0
   -3.1976    0.5553    2.1903 O   0  0  0  0  0  0  0  0  0  0  0  0
   -3.2889    0.9236   -0.2398 C   0  0  1  0  0  0  0  0  0  0  0  0
   -4.3884    1.8519   -0.7450 C   0  0  0  0  0  0  0  0  0  0  0  0
   -2.0998    1.7179   -0.1275 O   0  0  0  0  0  0  0  0  0  0  0  0
   -0.9790    0.9827   -0.3976 C   0  0  0  0  0  0  0  0  0  0  0  0
   -0.2182    0.4930    0.6616 C   0  0  0  0  0  0  0  0  0  0  0  0
    0.9433   -0.2345    0.3992 C   0  0  0  0  0  0  0  0  0  0  0  0
    1.3519   -0.4348   -0.9231 C   0  0  0  0  0  0  0  0  0  0  0  0
    2.4708   -1.1642   -1.2580 O   0  0  0  0  0  0  0  0  0  0  0  0
    3.6216   -0.9108   -0.5443 C   0  0  0  0  0  0  0  0  0  0  0  0
    4.1414    0.3865   -0.4579 C   0  0  0  0  0  0  0  0  0  0  0  0
    5.3318    0.6138    0.2349 C   0  0  0  0  0  0  0  0  0  0  0  0
    6.0060   -0.4557    0.8242 C   0  0  0  0  0  0  0  0  0  0  0  0
    7.4735   -0.1705    1.6760 Cl  0  0  0  0  0  0  0  0  0  0  0  0
    5.5067   -1.7532    0.7247 C   0  0  0  0  0  0  0  0  0  0  0  0
    4.3163   -1.9808    0.0324 C   0  0  0  0  0  0  0  0  0  0  0  0
    3.7237   -3.5983   -0.0773 Cl  0  0  0  0  0  0  0  0  0  0  0  0
    0.5861    0.0609   -1.9807 C   0  0  0  0  0  0  0  0  0  0  0  0
   -0.5760    0.7865   -1.7178 C   0  0  0  0  0  0  0  0  0  0  0  0
  1  2  1  0
  2  3  1  0
  3  4  2  0
  3  5  1  0
  5  6  1  1
  5  7  1  0
  7  8  1  0
  8  9  2  0
  9 10  1  0
 10 11  2  0
 11 12  1  0
 12 13  1  0
 13 14  2  0
 14 15  1  0
 15 16  2  0
 16 17  1  0
 16 18  1  0
 18 19  2  0
 19 20  1  0
 11 21  1  0
 21 22  2  0
 22  8  1  0
 19 13  1  0
M  END
