
     RDKit          3D

 13 14  0  0  0  0  0  0  0  0999 V2000
    3.0401    0.2961   -0.9604 C   0  0  0  0  0  0  0  0  0  0  0  0
    2.3128   -0.6610   -0.2155 O   0  0  0  0  0  0  0  0  0  0  0  0
    1.8482   -0.2669    1.2872 P   0  0  2  0  0  5  0  0  0  0  0  0
    3.2633    0.1271    2.5461 S   0  0  0  0  0  0  0  0  0  0  0  0
    0.9082   -1.5177    1.6846 O   0  0  0  0  0  0  0  0  0  0  0  0
   -0.1306   -1.8417    0.7836 C   0  0  0  0  0  0  0  0  0  0  0  0
   -0.9650   -0.6470    0.4228 C   0  0  0  0  0  0  0  0  0  0  0  0
   -2.2545   -0.8298   -0.0986 C   0  0  0  0  0  0  0  0  0  0  0  0
   -3.0383    0.2688   -0.4580 C   0  0  0  0  0  0  0  0  0  0  0  0
   -2.5402    1.5611   -0.3059 C   0  0  0  0  0  0  0  0  0  0  0  0
   -1.2563    1.7544    0.1999 C   0  0  0  0  0  0  0  0  0  0  0  0
   -0.4754    0.6539    0.5507 C   0  0  0  0  0  0  0  0  0  0  0  0
    0.7728    0.9131    1.0380 O   0  0  0  0  0  0  0  0  0  0  0  0
  1  2  1  0
  3  2  1  6
  3  4  2  0
  3  5  1  0
  5  6  1  0
  6  7  1  0
  7  8  2  0
  8  9  1  0
  9 10  2  0
 10 11  1  0
 11 12  2  0
 12 13  1  0
 13  3  1  0
 12  7  1  0
M  END
