
     RDKit          3D

 15 16  0  0  0  0  0  0  0  0999 V2000
    3.3098    1.3010    2.2289 C   0  0  0  0  0  0  0  0  0  0  0  0
    2.3902    0.2702    1.9312 O   0  0  0  0  0  0  0  0  0  0  0  0
    1.3754    0.5473    0.7088 P   0  0  0  0  0  5  0  0  0  0  0  0
    0.7408    1.9048    0.7253 O   0  0  0  0  0  0  0  0  0  0  0  0
    2.2727    0.2584   -0.6026 O   0  0  0  0  0  0  0  0  0  0  0  0
    2.9158   -0.9947   -0.7180 C   0  0  0  0  0  0  0  0  0  0  0  0
    0.3514   -0.7013    0.7732 O   0  0  0  0  0  0  0  0  0  0  0  0
   -0.6645   -0.8370    0.0072 C   0  0  0  0  0  0  0  0  0  0  0  0
   -1.5419   -1.8330   -0.2533 C   0  0  0  0  0  0  0  0  0  0  0  0
   -1.6953   -3.4891    0.3640 Cl  0  0  0  0  0  0  0  0  0  0  0  0
   -2.2937   -1.0559   -1.3135 C   0  0  1  0  0  0  0  0  0  0  0  0
   -3.6572   -0.6244   -0.9366 C   0  0  0  0  0  0  0  0  0  0  0  0
   -3.6341    0.6228   -0.4526 C   0  0  0  0  0  0  0  0  0  0  0  0
   -2.2570    1.2204   -0.4096 C   0  0  0  0  0  0  0  0  0  0  0  0
   -1.3445    0.1210   -0.9803 C   0  0  1  0  0  0  0  0  0  0  0  0
  1  2  1  0
  2  3  1  0
  3  4  2  0
  3  5  1  0
  5  6  1  0
  3  7  1  0
  7  8  1  0
  8  9  2  0
  9 10  1  0
  9 11  1  0
 11 12  1  1
 12 13  2  0
 13 14  1  0
 15 14  1  1
 15  8  1  0
 15 11  1  0
M  END
