
     RDKit          3D

 18 18  0  0  0  0  0  0  0  0999 V2000
   -2.8102    2.7781   -1.6017 C   0  0  0  0  0  0  0  0  0  0  0  0
   -2.9289    1.9210   -0.3578 C   0  0  0  0  0  0  0  0  0  0  0  0
   -1.7761    1.1011   -0.2648 O   0  0  0  0  0  0  0  0  0  0  0  0
   -1.7645   -0.0925    0.8322 P   0  0  0  0  0  5  0  0  0  0  0  0
   -1.9269    0.4315    2.6944 S   0  0  0  0  0  0  0  0  0  0  0  0
   -2.9524   -1.0361    0.2599 O   0  0  0  0  0  0  0  0  0  0  0  0
   -3.1568   -2.3036    0.8622 C   0  0  0  0  0  0  0  0  0  0  0  0
   -3.9026   -3.1873   -0.1171 C   0  0  0  0  0  0  0  0  0  0  0  0
   -0.4593   -0.9420    0.4036 O   0  0  0  0  0  0  0  0  0  0  0  0
    0.8369   -0.5162    0.4541 C   0  0  0  0  0  0  0  0  0  0  0  0
    1.8042   -1.5009    0.2479 C   0  0  0  0  0  0  0  0  0  0  0  0
    3.1621   -1.1744    0.2732 C   0  0  0  0  0  0  0  0  0  0  0  0
    3.5615    0.1454    0.4941 C   0  0  0  0  0  0  0  0  0  0  0  0
    5.3109    0.5956    0.5313 S   0  0  0  0  0  4  0  0  0  0  0  0
    5.3969    1.2915   -1.1390 C   0  0  0  0  0  0  0  0  0  0  0  0
    6.0713   -0.6981    0.5129 O   0  0  0  0  0  0  0  0  0  0  0  0
    2.5895    1.1299    0.7017 C   0  0  0  0  0  0  0  0  0  0  0  0
    1.2295    0.8007    0.6782 C   0  0  0  0  0  0  0  0  0  0  0  0
  1  2  1  0
  2  3  1  0
  3  4  1  0
  4  5  2  0
  4  6  1  0
  6  7  1  0
  7  8  1  0
  4  9  1  0
  9 10  1  0
 10 11  2  0
 11 12  1  0
 12 13  2  0
 13 14  1  0
 14 15  1  6
 14 16  2  0
 13 17  1  0
 17 18  2  0
 18 10  1  0
M  END
