
     RDKit          3D

 18 20  0  0  0  0  0  0  0  0999 V2000
   -4.3549    0.7337    0.6891 C   0  0  0  0  0  0  0  0  0  0  0  0
   -2.8543    0.7041    0.4244 C   0  0  0  0  0  0  0  0  0  0  0  0
   -2.0375    0.5911    1.7167 C   0  0  0  0  0  0  0  0  0  0  0  0
   -0.7537   -0.1584    1.3535 C   0  0  0  0  0  0  0  0  0  0  0  0
   -0.8040   -0.4240   -0.1657 C   0  0  2  0  0  0  0  0  0  0  0  0
   -0.0003    0.6353   -0.9523 C   0  0  0  0  0  0  0  0  0  0  0  0
    1.4711    0.5381   -0.7038 C   0  0  0  0  0  0  0  0  0  0  0  0
    2.1981    1.3503    0.0354 N   0  0  0  0  0  0  0  0  0  0  0  0
    3.4817    0.8672   -0.0353 C   0  0  0  0  0  0  0  0  0  0  0  0
    4.6551    1.3439    0.5660 C   0  0  0  0  0  0  0  0  0  0  0  0
    5.8553    0.6605    0.3321 C   0  0  0  0  0  0  0  0  0  0  0  0
    5.8856   -0.4736   -0.4839 C   0  0  0  0  0  0  0  0  0  0  0  0
    4.7242   -0.9639   -1.0929 C   0  0  0  0  0  0  0  0  0  0  0  0
    3.5427   -0.2630   -0.8420 C   0  0  0  0  0  0  0  0  0  0  0  0
    2.2503   -0.4481   -1.2591 N   0  0  0  0  0  0  0  0  0  0  0  0
   -2.3354   -0.4491   -0.4701 C   0  0  0  0  0  0  0  0  0  0  0  0
   -2.9193   -1.8225   -0.0654 C   0  0  0  0  0  0  0  0  0  0  0  0
   -2.6841   -0.2140   -1.9466 C   0  0  0  0  0  0  0  0  0  0  0  0
  1  2  1  0
  2  3  1  0
  3  4  1  0
  4  5  1  0
  5  6  1  6
  6  7  1  0
  7  8  2  0
  8  9  1  0
  9 10  2  0
 10 11  1  0
 11 12  2  0
 12 13  1  0
 13 14  2  0
 14 15  1  0
  5 16  1  0
 16 17  1  0
 16 18  1  0
 16  2  1  0
 15  7  1  0
 14  9  1  0
M  END
