
     RDKit          3D

  9  9  0  0  0  0  0  0  0  0999 V2000
    3.1934    0.6493   -0.3603 C   0  0  0  0  0  0  0  0  0  0  0  0
    1.8613    0.0741   -0.8155 C   0  0  0  0  0  0  0  0  0  0  0  0
    0.8158    0.1323    0.3012 C   0  0  0  0  0  0  0  0  0  0  0  0
   -0.5190   -0.4675   -0.1370 C   0  0  1  0  0  0  0  0  0  0  0  0
   -1.5605   -0.4439    0.9609 C   0  0  0  0  0  0  0  0  0  0  0  0
   -2.8490   -0.4552    0.1756 C   0  0  0  0  0  0  0  0  0  0  0  0
   -2.4577    0.2880   -1.0661 C   0  0  0  0  0  0  0  0  0  0  0  0
   -3.2308    0.7808   -1.8705 O   0  0  0  0  0  0  0  0  0  0  0  0
   -1.0974    0.3078   -1.1918 O   0  0  0  0  0  0  0  0  0  0  0  0
  1  2  1  0
  2  3  1  0
  4  3  1  1
  4  5  1  0
  5  6  1  0
  6  7  1  0
  7  8  2  0
  7  9  1  0
  9  4  1  0
M  END
