
     RDKit          3D

 13 14  0  0  0  0  0  0  0  0999 V2000
    4.0718    0.4319    0.2813 C   0  0  0  0  0  0  0  0  0  0  0  0
    2.8699    0.9044   -0.2925 O   0  0  0  0  0  0  0  0  0  0  0  0
    1.6834   -0.1602   -0.5756 P   0  0  1  0  0  5  0  0  0  0  0  0
    2.0886   -1.5972   -1.8121 S   0  0  0  0  0  0  0  0  0  0  0  0
    1.2710   -0.5886    0.9273 O   0  0  0  0  0  0  0  0  0  0  0  0
    0.0062   -1.2113    1.0534 C   0  0  0  0  0  0  0  0  0  0  0  0
   -1.0852   -0.4129    0.3979 C   0  0  0  0  0  0  0  0  0  0  0  0
   -2.4238   -0.6521    0.7425 C   0  0  0  0  0  0  0  0  0  0  0  0
   -3.4537    0.0698    0.1353 C   0  0  0  0  0  0  0  0  0  0  0  0
   -3.1584    1.0347   -0.8258 C   0  0  0  0  0  0  0  0  0  0  0  0
   -1.8336    1.2738   -1.1851 C   0  0  0  0  0  0  0  0  0  0  0  0
   -0.8100    0.5446   -0.5826 C   0  0  0  0  0  0  0  0  0  0  0  0
    0.4673    0.8254   -0.9775 O   0  0  0  0  0  0  0  0  0  0  0  0
  1  2  1  0
  3  2  1  1
  3  4  2  0
  3  5  1  0
  5  6  1  0
  6  7  1  0
  7  8  2  0
  8  9  1  0
  9 10  2  0
 10 11  1  0
 11 12  2  0
 12 13  1  0
 13  3  1  0
 12  7  1  0
M  END
