
     RDKit          3D

 20 21  0  0  0  0  0  0  0  0999 V2000
    4.8285    0.3973   -0.7519 C   0  0  0  0  0  0  0  0  0  0  0  0
    3.4643    0.4574   -1.4207 C   0  0  0  0  0  0  0  0  0  0  0  0
    2.3855    0.5401   -0.4347 N   0  0  0  0  0  0  0  0  0  0  0  0
    1.9334    1.8822   -0.0638 C   0  0  0  0  0  0  0  0  0  0  0  0
    0.8353    2.3839   -0.9893 C   0  0  0  0  0  0  0  0  0  0  0  0
    1.8334   -0.6555    0.0324 C   0  0  0  0  0  0  0  0  0  0  0  0
    2.2601   -1.7478   -0.3562 O   0  0  0  0  0  0  0  0  0  0  0  0
    0.6928   -0.5828    1.0764 C   0  0  2  0  0  0  0  0  0  0  0  0
    1.3247   -0.5857    2.4671 C   0  0  0  0  0  0  0  0  0  0  0  0
   -0.1964   -1.7098    1.0246 O   0  0  0  0  0  0  0  0  0  0  0  0
   -1.1936   -1.5002    0.0999 C   0  0  0  0  0  0  0  0  0  0  0  0
   -0.9744   -1.9420   -1.2059 C   0  0  0  0  0  0  0  0  0  0  0  0
   -1.9498   -1.7407   -2.1759 C   0  0  0  0  0  0  0  0  0  0  0  0
   -3.1494   -1.1139   -1.8363 C   0  0  0  0  0  0  0  0  0  0  0  0
   -3.3994   -0.6961   -0.5180 C   0  0  0  0  0  0  0  0  0  0  0  0
   -4.6168   -0.0844   -0.1751 C   0  0  0  0  0  0  0  0  0  0  0  0
   -4.8741    0.3149    1.1368 C   0  0  0  0  0  0  0  0  0  0  0  0
   -3.9202    0.1038    2.1257 C   0  0  0  0  0  0  0  0  0  0  0  0
   -2.7045   -0.4998    1.8009 C   0  0  0  0  0  0  0  0  0  0  0  0
   -2.4160   -0.9010    0.4788 C   0  0  0  0  0  0  0  0  0  0  0  0
  1  2  1  0
  2  3  1  0
  3  4  1  0
  4  5  1  0
  3  6  1  0
  6  7  2  0
  6  8  1  0
  8  9  1  1
  8 10  1  0
 10 11  1  0
 11 12  2  0
 12 13  1  0
 13 14  2  0
 14 15  1  0
 15 16  2  0
 16 17  1  0
 17 18  2  0
 18 19  1  0
 19 20  2  0
 20 11  1  0
 20 15  1  0
M  END
