
     RDKit          3D

 11 12  0  0  0  0  0  0  0  0999 V2000
   -1.6190    2.1581   -0.3244 O   0  0  0  0  0  0  0  0  0  0  0  0
   -1.2153    0.9717    0.3563 C   0  0  1  0  0  0  0  0  0  0  0  0
   -2.1472   -0.1698   -0.0555 C   0  0  0  0  0  0  0  0  0  0  0  0
   -1.6222   -1.5005    0.4620 C   0  0  0  0  0  0  0  0  0  0  0  0
   -0.2632   -1.8121   -0.1602 C   0  0  0  0  0  0  0  0  0  0  0  0
    0.6945   -0.6460   -0.1187 C   0  0  0  0  0  0  0  0  0  0  0  0
    2.0602   -0.8853   -0.3401 C   0  0  0  0  0  0  0  0  0  0  0  0
    2.9756    0.1664   -0.3448 C   0  0  0  0  0  0  0  0  0  0  0  0
    2.5363    1.4695   -0.1354 C   0  0  0  0  0  0  0  0  0  0  0  0
    1.1808    1.7212    0.0760 C   0  0  0  0  0  0  0  0  0  0  0  0
    0.2425    0.6751    0.0748 C   0  0  0  0  0  0  0  0  0  0  0  0
  2  1  1  6
  2  3  1  0
  3  4  1  0
  4  5  1  0
  5  6  1  0
  6  7  2  0
  7  8  1  0
  8  9  2  0
  9 10  1  0
 10 11  2  0
 11  2  1  0
 11  6  1  0
M  END
