
     RDKit          3D

 20 21  0  0  0  0  0  0  0  0999 V2000
   -3.1621    0.3530    0.3511 C   0  0  0  0  0  0  0  0  0  0  0  0
   -2.0431   -0.6920    0.1938 C   0  0  0  0  0  0  0  0  0  0  0  0
   -2.4045   -1.8802    1.1202 C   0  0  0  0  0  0  0  0  0  0  0  0
   -2.0472   -1.2187   -1.2533 C   0  0  0  0  0  0  0  0  0  0  0  0
   -0.6240   -0.1524    0.5931 C   0  0  2  0  0  0  0  0  0  0  0  0
   -0.6411    0.4236    1.9068 O   0  0  0  0  0  0  0  0  0  0  0  0
    0.0981    0.8191   -0.3875 C   0  0  2  0  0  0  0  0  0  0  0  0
    1.5409    1.1568    0.0597 C   0  0  0  0  0  0  0  0  0  0  0  0
    2.4792   -0.0290    0.0406 C   0  0  0  0  0  0  0  0  0  0  0  0
    2.9086   -0.6135    1.2406 C   0  0  0  0  0  0  0  0  0  0  0  0
    3.7637   -1.7174    1.2227 C   0  0  0  0  0  0  0  0  0  0  0  0
    4.1948   -2.2399    0.0055 C   0  0  0  0  0  0  0  0  0  0  0  0
    5.2458   -3.6017   -0.0157 Cl  0  0  0  0  0  0  0  0  0  0  0  0
    3.7798   -1.6667   -1.1943 C   0  0  0  0  0  0  0  0  0  0  0  0
    2.9247   -0.5628   -1.1774 C   0  0  0  0  0  0  0  0  0  0  0  0
   -0.6166    2.0653   -0.6249 N   0  0  0  0  0  0  0  0  0  0  0  0
   -0.9575    3.0384    0.2654 C   0  0  0  0  0  0  0  0  0  0  0  0
   -1.5165    4.0421   -0.3709 N   0  0  0  0  0  0  0  0  0  0  0  0
   -1.4811    3.6370   -1.6735 C   0  0  0  0  0  0  0  0  0  0  0  0
   -0.9293    2.4391   -1.8838 N   0  0  0  0  0  0  0  0  0  0  0  0
  1  2  1  0
  2  3  1  0
  2  4  1  0
  2  5  1  0
  5  6  1  1
  5  7  1  0
  7  8  1  1
  8  9  1  0
  9 10  2  0
 10 11  1  0
 11 12  2  0
 12 13  1  0
 12 14  1  0
 14 15  2  0
  7 16  1  0
 16 17  1  0
 17 18  2  0
 18 19  1  0
 19 20  2  0
 15  9  1  0
 20 16  1  0
M  END
