
     RDKit          3D

 24 26  0  0  0  0  0  0  0  0999 V2000
   -5.6833    0.1201    0.7159 C   0  0  0  0  0  0  0  0  0  0  0  0
   -4.9724   -0.9977    0.0052 C   0  0  0  0  0  0  0  0  0  0  0  0
   -5.4287   -2.3808    0.3847 C   0  0  0  0  0  0  0  0  0  0  0  0
   -3.9970   -0.8103   -0.9066 C   0  0  0  0  0  0  0  0  0  0  0  0
   -3.4573    0.4735   -1.3774 C   0  0  2  0  0  0  0  0  0  0  0  0
   -2.0348    0.6181   -1.8766 C   0  0  2  0  0  0  0  0  0  0  0  0
   -1.0830   -0.5114   -1.9691 C   0  0  0  0  0  0  0  0  0  0  0  0
   -1.3413   -1.5437   -2.5702 O   0  0  0  0  0  0  0  0  0  0  0  0
    0.0989   -0.2168   -1.3723 O   0  0  0  0  0  0  0  0  0  0  0  0
    1.0238   -1.2988   -1.4285 C   0  0  0  0  0  0  0  0  0  0  0  0
    2.2279   -0.8788   -0.7678 N   0  0  0  0  0  0  0  0  0  0  0  0
    3.2817   -0.2934   -1.3909 C   0  0  0  0  0  0  0  0  0  0  0  0
    3.4357   -0.0497   -2.5728 O   0  0  0  0  0  0  0  0  0  0  0  0
    4.2634    0.0086   -0.3466 C   0  0  0  0  0  0  0  0  0  0  0  0
    3.7582   -0.3919    0.8227 C   0  0  0  0  0  0  0  0  0  0  0  0
    4.4331   -0.2553    2.1342 C   0  0  0  0  0  0  0  0  0  0  0  0
    5.6508    0.6810    2.0254 C   0  0  0  0  0  0  0  0  0  0  0  0
    6.4555    0.4504    0.7353 C   0  0  0  0  0  0  0  0  0  0  0  0
    5.5982    0.6239   -0.5317 C   0  0  0  0  0  0  0  0  0  0  0  0
    2.4330   -0.9628    0.5713 C   0  0  0  0  0  0  0  0  0  0  0  0
    1.7023   -1.4177    1.4318 O   0  0  0  0  0  0  0  0  0  0  0  0
   -2.4395    1.2356   -0.5431 C   0  0  0  0  0  0  0  0  0  0  0  0
   -1.9229    0.6434    0.7497 C   0  0  0  0  0  0  0  0  0  0  0  0
   -2.5795    2.7373   -0.4887 C   0  0  0  0  0  0  0  0  0  0  0  0
  1  2  1  0
  2  3  1  0
  2  4  2  3
  5  4  1  1
  5  6  1  0
  6  7  1  1
  7  8  2  0
  7  9  1  0
  9 10  1  0
 10 11  1  0
 11 12  1  0
 12 13  2  0
 12 14  1  0
 14 15  2  0
 15 16  1  0
 16 17  1  0
 17 18  1  0
 18 19  1  0
 15 20  1  0
 20 21  2  0
  6 22  1  0
 22 23  1  0
 22 24  1  0
 22  5  1  0
 20 11  1  0
 19 14  1  0
M  END
