
     RDKit          3D

 18 19  0  0  0  0  0  0  0  0999 V2000
    1.1767    1.4997   -0.7367 O   0  0  0  0  0  0  0  0  0  0  0  0
    0.8426    0.4042   -0.3072 C   0  0  0  0  0  0  0  0  0  0  0  0
    1.7639   -0.5469    0.0323 O   0  0  0  0  0  0  0  0  0  0  0  0
    3.1892   -0.3115   -0.1106 C   0  0  0  0  0  0  0  0  0  0  0  0
    3.8438   -1.6162    0.3707 C   0  0  0  0  0  0  0  0  0  0  0  0
    3.5754   -0.0853   -1.5763 C   0  0  0  0  0  0  0  0  0  0  0  0
    3.6609    0.8319    0.7942 C   0  0  0  0  0  0  0  0  0  0  0  0
   -0.4713   -0.0452   -0.0763 N   0  0  0  0  0  0  0  0  0  0  0  0
   -0.6434   -1.3673    0.5305 C   0  0  0  0  0  0  0  0  0  0  0  0
   -2.0340   -1.9480    0.3988 C   0  0  0  0  0  0  0  0  0  0  0  0
   -3.0322   -0.9633    0.9664 C   0  0  2  0  0  0  0  0  0  0  0  0
   -4.3427   -1.5061    0.8093 O   0  0  0  0  0  0  0  0  0  0  0  0
   -2.8956    0.3591    0.2529 C   0  0  0  0  0  0  0  0  0  0  0  0
   -4.0265    1.1927    0.1321 C   0  0  0  0  0  0  0  0  0  0  0  0
   -3.9438    2.4260   -0.5031 C   0  0  0  0  0  0  0  0  0  0  0  0
   -2.7276    2.8415   -1.0216 C   0  0  0  0  0  0  0  0  0  0  0  0
   -1.5931    2.0316   -0.8927 C   0  0  0  0  0  0  0  0  0  0  0  0
   -1.6402    0.7878   -0.2416 C   0  0  0  0  0  0  0  0  0  0  0  0
  1  2  2  0
  2  3  1  0
  3  4  1  0
  4  5  1  0
  4  6  1  0
  4  7  1  0
  2  8  1  0
  8  9  1  0
  9 10  1  0
 10 11  1  0
 11 12  1  6
 11 13  1  0
 13 14  2  0
 14 15  1  0
 15 16  2  0
 16 17  1  0
 17 18  2  0
 18  8  1  0
 18 13  1  0
M  END
