
     RDKit          3D

 19 20  0  0  0  0  0  0  0  0999 V2000
    0.0211   -0.1300   -2.5651 O   0  0  0  0  0  0  0  0  0  0  0  0
   -0.7919    0.0247   -1.6655 C   0  0  0  0  0  0  0  0  0  0  0  0
   -2.2830    0.1916   -1.9074 C   0  0  2  0  0  0  0  0  0  0  0  0
   -2.5664    1.8679   -2.4353 Cl  0  0  0  0  0  0  0  0  0  0  0  0
   -2.8822   -0.1498   -0.5447 C   0  0  2  0  0  0  0  0  0  0  0  0
   -4.2690    0.4134   -0.2757 C   0  0  0  0  0  0  0  0  0  0  0  0
   -4.9049   -0.1900    1.2765 Cl  0  0  0  0  0  0  0  0  0  0  0  0
   -1.8149    0.3372    0.4258 C   0  0  0  0  0  0  0  0  0  0  0  0
   -0.5682    0.1250   -0.2787 N   0  0  0  0  0  0  0  0  0  0  0  0
    0.6950    0.1442    0.3763 C   0  0  0  0  0  0  0  0  0  0  0  0
    0.7859    0.4460    1.7444 C   0  0  0  0  0  0  0  0  0  0  0  0
    2.0183    0.4721    2.4052 C   0  0  0  0  0  0  0  0  0  0  0  0
    3.1900    0.1931    1.7099 C   0  0  0  0  0  0  0  0  0  0  0  0
    3.1371   -0.1191    0.3475 C   0  0  0  0  0  0  0  0  0  0  0  0
    4.3954   -0.4127   -0.4322 C   0  0  0  0  0  0  0  0  0  0  0  0
    4.7621    0.6208   -1.2385 F   0  0  0  0  0  0  0  0  0  0  0  0
    4.2756   -1.5008   -1.2422 F   0  0  0  0  0  0  0  0  0  0  0  0
    5.4744   -0.6637    0.3631 F   0  0  0  0  0  0  0  0  0  0  0  0
    1.8880   -0.1340   -0.3050 C   0  0  0  0  0  0  0  0  0  0  0  0
  1  2  2  0
  2  3  1  0
  3  4  1  1
  3  5  1  0
  5  6  1  1
  6  7  1  0
  5  8  1  0
  8  9  1  0
  9 10  1  0
 10 11  2  0
 11 12  1  0
 12 13  2  0
 13 14  1  0
 14 15  1  0
 15 16  1  0
 15 17  1  0
 15 18  1  0
 14 19  2  0
  9  2  1  0
 19 10  1  0
M  END
