
     RDKit          3D

 10 10  0  0  0  0  0  0  0  0999 V2000
    3.5033    0.6188   -0.8600 C   0  0  0  0  0  0  0  0  0  0  0  0
    2.0815    0.2990   -0.5078 C   0  0  0  0  0  0  0  0  0  0  0  0
    1.1706    1.3220   -0.2295 C   0  0  0  0  0  0  0  0  0  0  0  0
   -0.1503    1.0256    0.1272 C   0  0  0  0  0  0  0  0  0  0  0  0
   -0.5917   -0.3017    0.2216 C   0  0  0  0  0  0  0  0  0  0  0  0
    0.3390   -1.3215   -0.0429 C   0  0  0  0  0  0  0  0  0  0  0  0
    1.6580   -1.0275   -0.3996 C   0  0  0  0  0  0  0  0  0  0  0  0
   -1.9990   -0.6868    0.6332 C   0  0  1  0  0  0  0  0  0  0  0  0
   -3.0025    0.4542    0.7784 C   0  0  0  0  0  0  0  0  0  0  0  0
   -2.5144   -1.6083   -0.3302 O   0  0  0  0  0  0  0  0  0  0  0  0
  1  2  1  0
  2  3  2  0
  3  4  1  0
  4  5  2  0
  5  6  1  0
  6  7  2  0
  5  8  1  0
  8  9  1  6
  8 10  1  0
  7  2  1  0
M  END
