
     RDKit          3D

 13 13  0  0  0  0  0  0  0  0999 V2000
    3.5856    0.4045    0.6134 C   0  0  0  0  0  0  0  0  0  0  0  0
    2.6363   -0.7399    0.2967 C   0  0  0  0  0  0  0  0  0  0  0  0
    1.4329   -0.2630   -0.3578 N   0  0  0  0  0  0  0  0  0  0  0  0
    1.2963   -0.1664   -1.7121 C   0  0  0  0  0  0  0  0  0  0  0  0
    2.1430   -0.4171   -2.5555 O   0  0  0  0  0  0  0  0  0  0  0  0
   -0.1128    0.2472   -2.0218 C   0  0  0  0  0  0  0  0  0  0  0  0
   -0.6575    0.7251   -0.6805 C   0  0  1  0  0  0  0  0  0  0  0  0
   -2.0808    0.2564   -0.4048 C   0  0  0  0  0  0  0  0  0  0  0  0
   -2.7516    1.1590    0.6115 C   0  0  0  0  0  0  0  0  0  0  0  0
   -3.3716    0.5017    1.8150 C   0  0  0  0  0  0  0  0  0  0  0  0
   -2.8122    2.3765    0.4386 O   0  0  0  0  0  0  0  0  0  0  0  0
    0.3112    0.1315    0.3108 C   0  0  0  0  0  0  0  0  0  0  0  0
    0.1070    0.0484    1.5126 O   0  0  0  0  0  0  0  0  0  0  0  0
  1  2  1  0
  2  3  1  0
  3  4  1  0
  4  5  2  0
  4  6  1  0
  6  7  1  0
  7  8  1  1
  8  9  1  0
  9 10  1  0
  9 11  2  0
  7 12  1  0
 12 13  2  0
 12  3  1  0
M  END
