
     RDKit          3D

 19 20  0  0  0  0  0  0  0  0999 V2000
    0.1922   -2.5271   -0.3569 O   0  0  0  0  0  0  0  0  0  0  0  0
    0.9300   -1.5750   -0.1537 C   0  0  0  0  0  0  0  0  0  0  0  0
    2.4447   -1.6559   -0.1162 C   0  0  2  0  0  0  0  0  0  0  0  0
    3.0106   -3.0911    0.7490 Cl  0  0  0  0  0  0  0  0  0  0  0  0
    2.8510   -0.3716    0.5960 C   0  0  1  0  0  0  0  0  0  0  0  0
    4.2661    0.0615    0.2457 C   0  0  0  0  0  0  0  0  0  0  0  0
    4.6787    1.6058    1.0273 Cl  0  0  0  0  0  0  0  0  0  0  0  0
    1.7721    0.6003    0.1412 C   0  0  0  0  0  0  0  0  0  0  0  0
    0.5856   -0.2164   -0.0003 N   0  0  0  0  0  0  0  0  0  0  0  0
   -0.7215    0.3401   -0.0859 C   0  0  0  0  0  0  0  0  0  0  0  0
   -0.9042    1.7315   -0.1304 C   0  0  0  0  0  0  0  0  0  0  0  0
   -2.1806    2.2965   -0.2178 C   0  0  0  0  0  0  0  0  0  0  0  0
   -3.3053    1.4796   -0.2592 C   0  0  0  0  0  0  0  0  0  0  0  0
   -3.1619    0.0892   -0.2073 C   0  0  0  0  0  0  0  0  0  0  0  0
   -4.3658   -0.8195   -0.2611 C   0  0  0  0  0  0  0  0  0  0  0  0
   -4.4961   -1.4394   -1.4660 F   0  0  0  0  0  0  0  0  0  0  0  0
   -4.3251   -1.8101    0.6721 F   0  0  0  0  0  0  0  0  0  0  0  0
   -5.5435   -0.1649   -0.0518 F   0  0  0  0  0  0  0  0  0  0  0  0
   -1.8685   -0.4646   -0.1258 C   0  0  0  0  0  0  0  0  0  0  0  0
  1  2  2  0
  2  3  1  0
  3  4  1  1
  3  5  1  0
  5  6  1  6
  6  7  1  0
  5  8  1  0
  8  9  1  0
  9 10  1  0
 10 11  2  0
 11 12  1  0
 12 13  2  0
 13 14  1  0
 14 15  1  0
 15 16  1  0
 15 17  1  0
 15 18  1  0
 14 19  2  0
  9  2  1  0
 19 10  1  0
M  END
