
     RDKit          3D

 26 28  0  0  0  0  0  0  0  0999 V2000
    4.3621    1.3450   -1.6123 C   0  0  0  0  0  0  0  0  0  0  0  0
    3.9921    0.0990   -0.8425 C   0  0  0  0  0  0  0  0  0  0  0  0
    4.1656    0.2513    0.6499 C   0  0  0  0  0  0  0  0  0  0  0  0
    4.2463   -1.2820   -1.4217 C   0  0  2  0  0  0  0  0  0  0  0  0
    4.9264   -1.4409   -2.7168 C   0  0  0  0  0  0  0  0  0  0  0  0
    6.2489   -1.4293   -2.9463 C   0  0  0  0  0  0  0  0  0  0  0  0
    6.8568   -1.6397   -4.5498 Cl  0  0  0  0  0  0  0  0  0  0  0  0
    7.3993   -1.2030   -1.6797 Cl  0  0  0  0  0  0  0  0  0  0  0  0
    2.8353   -0.7282   -1.3886 C   0  0  1  0  0  0  0  0  0  0  0  0
    1.8269   -1.3278   -0.4851 C   0  0  0  0  0  0  0  0  0  0  0  0
    1.7954   -2.5239   -0.2406 O   0  0  0  0  0  0  0  0  0  0  0  0
    0.9805   -0.3849   -0.0042 O   0  0  0  0  0  0  0  0  0  0  0  0
    0.0011   -0.9081    0.8970 C   0  0  0  0  0  0  0  0  0  0  0  0
   -0.8622    0.2187    1.4106 C   0  0  0  0  0  0  0  0  0  0  0  0
   -0.2963    1.4368    1.8183 C   0  0  0  0  0  0  0  0  0  0  0  0
   -1.0966    2.4577    2.3364 C   0  0  0  0  0  0  0  0  0  0  0  0
   -2.4724    2.2699    2.4592 C   0  0  0  0  0  0  0  0  0  0  0  0
   -3.0481    1.0686    2.0499 C   0  0  0  0  0  0  0  0  0  0  0  0
   -4.4056    0.9340    2.2373 O   0  0  0  0  0  0  0  0  0  0  0  0
   -5.1277    0.3635    1.2141 C   0  0  0  0  0  0  0  0  0  0  0  0
   -6.0133   -0.6600    1.5509 C   0  0  0  0  0  0  0  0  0  0  0  0
   -6.7961   -1.2534    0.5605 C   0  0  0  0  0  0  0  0  0  0  0  0
   -6.7030   -0.8116   -0.7604 C   0  0  0  0  0  0  0  0  0  0  0  0
   -5.8339    0.2293   -1.0912 C   0  0  0  0  0  0  0  0  0  0  0  0
   -5.0485    0.8236   -0.1028 C   0  0  0  0  0  0  0  0  0  0  0  0
   -2.2462    0.0369    1.5501 C   0  0  0  0  0  0  0  0  0  0  0  0
  1  2  1  0
  2  3  1  0
  2  4  1  0
  4  5  1  6
  5  6  2  3
  6  7  1  0
  6  8  1  0
  4  9  1  0
  9 10  1  1
 10 11  2  0
 10 12  1  0
 12 13  1  0
 13 14  1  0
 14 15  2  0
 15 16  1  0
 16 17  2  0
 17 18  1  0
 18 19  1  0
 19 20  1  0
 20 21  2  0
 21 22  1  0
 22 23  2  0
 23 24  1  0
 24 25  2  0
 18 26  2  0
  9  2  1  0
 26 14  1  0
 25 20  1  0
M  END
