
     RDKit          3D

 19 20  0  0  0  0  0  0  0  0999 V2000
   -1.3417    2.7906   -0.3690 O   0  0  0  0  0  0  0  0  0  0  0  0
   -1.5654    1.6077   -0.1570 C   0  0  0  0  0  0  0  0  0  0  0  0
   -2.9628    1.0054   -0.1584 C   0  0  1  0  0  0  0  0  0  0  0  0
   -3.4314    0.7469   -1.8578 Cl  0  0  0  0  0  0  0  0  0  0  0  0
   -2.7591   -0.2815    0.6397 C   0  0  1  0  0  0  0  0  0  0  0  0
   -3.7677   -1.4008    0.4420 C   0  0  0  0  0  0  0  0  0  0  0  0
   -5.3947   -0.8863    0.9417 Cl  0  0  0  0  0  0  0  0  0  0  0  0
   -1.3460   -0.6930    0.2560 C   0  0  0  0  0  0  0  0  0  0  0  0
   -0.6484    0.5619    0.0813 N   0  0  0  0  0  0  0  0  0  0  0  0
    0.7708    0.6563    0.0421 C   0  0  0  0  0  0  0  0  0  0  0  0
    1.4288    1.8875   -0.0602 C   0  0  0  0  0  0  0  0  0  0  0  0
    2.8255    1.9677   -0.0918 C   0  0  0  0  0  0  0  0  0  0  0  0
    3.5968    0.8125   -0.0244 C   0  0  0  0  0  0  0  0  0  0  0  0
    2.9752   -0.4363    0.0677 C   0  0  0  0  0  0  0  0  0  0  0  0
    3.7941   -1.6996    0.1597 C   0  0  0  0  0  0  0  0  0  0  0  0
    3.2000   -2.7600   -0.4571 F   0  0  0  0  0  0  0  0  0  0  0  0
    5.0294   -1.5872   -0.4017 F   0  0  0  0  0  0  0  0  0  0  0  0
    3.9996   -2.0876    1.4483 F   0  0  0  0  0  0  0  0  0  0  0  0
    1.5675   -0.4994    0.1080 C   0  0  0  0  0  0  0  0  0  0  0  0
  1  2  2  0
  2  3  1  0
  3  4  1  6
  3  5  1  0
  5  6  1  6
  6  7  1  0
  5  8  1  0
  8  9  1  0
  9 10  1  0
 10 11  2  0
 11 12  1  0
 12 13  2  0
 13 14  1  0
 14 15  1  0
 15 16  1  0
 15 17  1  0
 15 18  1  0
 14 19  2  0
  9  2  1  0
 19 10  1  0
M  END
