
     RDKit          3D

 27 29  0  0  0  0  0  0  0  0999 V2000
   -2.8493    0.3625    1.7888 C   0  0  0  0  0  0  0  0  0  0  0  0
   -2.1116    0.6694    0.4754 C   0  0  2  0  0  0  0  0  0  0  0  0
   -1.8887    2.1019    0.4954 O   0  0  0  0  0  0  0  0  0  0  0  0
   -2.9353    0.3799   -0.8068 C   0  0  0  0  0  0  0  0  0  0  0  0
   -4.2670    0.9582   -0.7967 N   0  0  0  0  0  0  0  0  0  0  0  0
   -5.4572    0.3200   -0.9471 C   0  0  0  0  0  0  0  0  0  0  0  0
   -6.4332    1.1950   -0.8723 N   0  0  0  0  0  0  0  0  0  0  0  0
   -5.7773    2.3762   -0.6757 C   0  0  0  0  0  0  0  0  0  0  0  0
   -4.4450    2.2825   -0.6115 N   0  0  0  0  0  0  0  0  0  0  0  0
   -0.7135   -0.0116    0.4934 C   0  0  0  0  0  0  0  0  0  0  0  0
    0.4000    0.8023    0.8366 C   0  0  0  0  0  0  0  0  0  0  0  0
    1.7087    0.3168    0.8947 C   0  0  0  0  0  0  0  0  0  0  0  0
    1.9571   -1.0121    0.5987 C   0  0  0  0  0  0  0  0  0  0  0  0
    3.2071   -1.5806    0.6585 O   0  0  0  0  0  0  0  0  0  0  0  0
    4.2509   -0.8815    0.0974 C   0  0  0  0  0  0  0  0  0  0  0  0
    5.4218   -0.7775    0.8502 C   0  0  0  0  0  0  0  0  0  0  0  0
    6.5304   -0.1118    0.3236 C   0  0  0  0  0  0  0  0  0  0  0  0
    6.4656    0.4317   -0.9592 C   0  0  0  0  0  0  0  0  0  0  0  0
    7.8318    1.2512   -1.6088 Cl  0  0  0  0  0  0  0  0  0  0  0  0
    5.3046    0.3095   -1.7228 C   0  0  0  0  0  0  0  0  0  0  0  0
    4.1952   -0.3564   -1.1971 C   0  0  0  0  0  0  0  0  0  0  0  0
    0.8923   -1.8555    0.2999 C   0  0  0  0  0  0  0  0  0  0  0  0
   -0.4478   -1.3894    0.2506 C   0  0  0  0  0  0  0  0  0  0  0  0
   -1.4741   -2.4444   -0.1069 C   0  0  0  0  0  0  0  0  0  0  0  0
   -2.6785   -2.2788    0.5004 F   0  0  0  0  0  0  0  0  0  0  0  0
   -1.0886   -3.7132    0.2066 F   0  0  0  0  0  0  0  0  0  0  0  0
   -1.7352   -2.4602   -1.4443 F   0  0  0  0  0  0  0  0  0  0  0  0
  2  1  1  1
  2  3  1  0
  2  4  1  0
  4  5  1  0
  5  6  1  0
  6  7  2  0
  7  8  1  0
  8  9  2  0
  2 10  1  0
 10 11  2  0
 11 12  1  0
 12 13  2  0
 13 14  1  0
 14 15  1  0
 15 16  2  0
 16 17  1  0
 17 18  2  0
 18 19  1  0
 18 20  1  0
 20 21  2  0
 13 22  1  0
 22 23  2  0
 23 24  1  0
 24 25  1  0
 24 26  1  0
 24 27  1  0
  9  5  1  0
 23 10  1  0
 21 15  1  0
M  END
