
     RDKit          3D

 26 28  0  0  0  0  0  0  0  0999 V2000
   -6.3510    0.0759   -0.0101 C   0  0  0  0  0  0  0  0  0  0  0  0
   -4.8853    0.3948    0.2166 C   0  0  0  0  0  0  0  0  0  0  0  0
   -4.6722    1.2215    1.4693 C   0  0  0  0  0  0  0  0  0  0  0  0
   -3.8663   -0.6734   -0.1746 C   0  0  0  0  0  0  0  0  0  0  0  0
   -2.6919   -0.9961    0.6703 C   0  0  0  0  0  0  0  0  0  0  0  0
   -2.7970   -1.3024    1.8477 O   0  0  0  0  0  0  0  0  0  0  0  0
   -1.5412   -0.9494   -0.0409 O   0  0  0  0  0  0  0  0  0  0  0  0
   -0.3665   -1.3355    0.6969 C   0  0  1  0  0  0  0  0  0  0  0  0
   -0.1732   -2.8018    0.6181 C   0  0  0  0  0  0  0  0  0  0  0  0
   -0.0269   -3.9545    0.5481 N   0  0  0  0  0  0  0  0  0  0  0  0
    0.8349   -0.5939    0.1226 C   0  0  0  0  0  0  0  0  0  0  0  0
    0.9025   -0.2183   -1.2308 C   0  0  0  0  0  0  0  0  0  0  0  0
    2.0204    0.4554   -1.7311 C   0  0  0  0  0  0  0  0  0  0  0  0
    3.0950    0.7472   -0.8949 C   0  0  0  0  0  0  0  0  0  0  0  0
    3.0544    0.3496    0.4410 C   0  0  0  0  0  0  0  0  0  0  0  0
    4.0714    0.6415    1.3172 O   0  0  0  0  0  0  0  0  0  0  0  0
    5.3335    0.1765    1.0169 C   0  0  0  0  0  0  0  0  0  0  0  0
    5.5924   -1.0261    0.3503 C   0  0  0  0  0  0  0  0  0  0  0  0
    6.9114   -1.4290    0.1262 C   0  0  0  0  0  0  0  0  0  0  0  0
    7.9708   -0.6426    0.5817 C   0  0  0  0  0  0  0  0  0  0  0  0
    7.7144    0.5453    1.2687 C   0  0  0  0  0  0  0  0  0  0  0  0
    6.3957    0.9515    1.4896 C   0  0  0  0  0  0  0  0  0  0  0  0
    1.9292   -0.2981    0.9543 C   0  0  0  0  0  0  0  0  0  0  0  0
   -3.9686    0.6055   -1.0015 C   0  0  0  0  0  0  0  0  0  0  0  0
   -4.5476    0.4810   -2.3973 C   0  0  0  0  0  0  0  0  0  0  0  0
   -2.8774    1.6557   -0.9343 C   0  0  0  0  0  0  0  0  0  0  0  0
  1  2  1  0
  2  3  1  0
  2  4  1  0
  4  5  1  0
  5  6  2  0
  5  7  1  0
  7  8  1  0
  8  9  1  6
  9 10  3  0
  8 11  1  0
 11 12  2  0
 12 13  1  0
 13 14  2  0
 14 15  1  0
 15 16  1  0
 16 17  1  0
 17 18  2  0
 18 19  1  0
 19 20  2  0
 20 21  1  0
 21 22  2  0
 15 23  2  0
  4 24  1  0
 24 25  1  0
 24 26  1  0
 24  2  1  0
 23 11  1  0
 22 17  1  0
M  END
