
     RDKit          3D

 19 20  0  0  0  0  0  0  0  0999 V2000
   -1.4055   -2.5549   -0.9812 O   0  0  0  0  0  0  0  0  0  0  0  0
   -1.6380   -1.5167   -0.3799 C   0  0  0  0  0  0  0  0  0  0  0  0
   -3.0234   -1.1220    0.1065 C   0  0  1  0  0  0  0  0  0  0  0  0
   -3.3395   -1.9923    1.6316 Cl  0  0  0  0  0  0  0  0  0  0  0  0
   -2.8966    0.3817    0.3414 C   0  0  2  0  0  0  0  0  0  0  0  0
   -3.1717    1.1905   -0.9314 C   0  0  0  0  0  0  0  0  0  0  0  0
   -4.8947    1.1245   -1.3737 Cl  0  0  0  0  0  0  0  0  0  0  0  0
   -1.4358    0.5281    0.7530 C   0  0  0  0  0  0  0  0  0  0  0  0
   -0.7411   -0.5027    0.0140 N   0  0  0  0  0  0  0  0  0  0  0  0
    0.6726   -0.5174   -0.1467 C   0  0  0  0  0  0  0  0  0  0  0  0
    1.3175   -1.4773   -0.9355 C   0  0  0  0  0  0  0  0  0  0  0  0
    2.7083   -1.4797   -1.0893 C   0  0  0  0  0  0  0  0  0  0  0  0
    3.4863   -0.5164   -0.4563 C   0  0  0  0  0  0  0  0  0  0  0  0
    2.8772    0.4629    0.3339 C   0  0  0  0  0  0  0  0  0  0  0  0
    3.7059    1.4999    1.0504 C   0  0  0  0  0  0  0  0  0  0  0  0
    3.0739    2.7040    1.1460 F   0  0  0  0  0  0  0  0  0  0  0  0
    4.8976    1.7540    0.4429 F   0  0  0  0  0  0  0  0  0  0  0  0
    4.0033    1.1335    2.3268 F   0  0  0  0  0  0  0  0  0  0  0  0
    1.4759    0.4463    0.4860 C   0  0  0  0  0  0  0  0  0  0  0  0
  1  2  2  0
  2  3  1  0
  3  4  1  1
  3  5  1  0
  5  6  1  6
  6  7  1  0
  5  8  1  0
  8  9  1  0
  9 10  1  0
 10 11  2  0
 11 12  1  0
 12 13  2  0
 13 14  1  0
 14 15  1  0
 15 16  1  0
 15 17  1  0
 15 18  1  0
 14 19  2  0
  9  2  1  0
 19 10  1  0
M  END
