
     RDKit          3D

 19 20  0  0  0  0  0  0  0  0999 V2000
    1.9394    0.4863   -2.4290 O   0  0  0  0  0  0  0  0  0  0  0  0
    1.8896    0.3477   -1.2152 C   0  0  0  0  0  0  0  0  0  0  0  0
    3.1265    0.2826   -0.3300 C   0  0  2  0  0  0  0  0  0  0  0  0
    3.8296   -1.3367   -0.4873 Cl  0  0  0  0  0  0  0  0  0  0  0  0
    2.5536    0.6288    1.0436 C   0  0  2  0  0  0  0  0  0  0  0  0
    3.3947    0.3218    2.2773 C   0  0  0  0  0  0  0  0  0  0  0  0
    3.3376   -1.3577    2.8491 Cl  0  0  0  0  0  0  0  0  0  0  0  0
    1.1585    0.0253    0.9952 C   0  0  0  0  0  0  0  0  0  0  0  0
    0.7577    0.1970   -0.3867 N   0  0  0  0  0  0  0  0  0  0  0  0
   -0.5948    0.0873   -0.8150 C   0  0  0  0  0  0  0  0  0  0  0  0
   -0.9734    0.3267   -2.1412 C   0  0  0  0  0  0  0  0  0  0  0  0
   -2.3072    0.2174   -2.5498 C   0  0  0  0  0  0  0  0  0  0  0  0
   -3.2949   -0.1329   -1.6357 C   0  0  0  0  0  0  0  0  0  0  0  0
   -2.9562   -0.3728   -0.3005 C   0  0  0  0  0  0  0  0  0  0  0  0
   -4.0093   -0.7795    0.6997 C   0  0  0  0  0  0  0  0  0  0  0  0
   -5.2566   -0.3349    0.3812 F   0  0  0  0  0  0  0  0  0  0  0  0
   -3.7568   -0.3070    1.9532 F   0  0  0  0  0  0  0  0  0  0  0  0
   -4.1117   -2.1308    0.8245 F   0  0  0  0  0  0  0  0  0  0  0  0
   -1.6068   -0.2676    0.0931 C   0  0  0  0  0  0  0  0  0  0  0  0
  1  2  2  0
  2  3  1  0
  3  4  1  1
  3  5  1  0
  5  6  1  1
  6  7  1  0
  5  8  1  0
  8  9  1  0
  9 10  1  0
 10 11  2  0
 11 12  1  0
 12 13  2  0
 13 14  1  0
 14 15  1  0
 15 16  1  0
 15 17  1  0
 15 18  1  0
 14 19  2  0
  9  2  1  0
 19 10  1  0
M  END
