
     RDKit          3D

 13 14  0  0  0  0  0  0  0  0999 V2000
    3.4907    0.2607    0.3092 C   0  0  0  0  0  0  0  0  0  0  0  0
    2.2174   -0.2962    0.5720 O   0  0  0  0  0  0  0  0  0  0  0  0
    1.5776   -1.3042   -0.5247 P   0  0  2  0  0  5  0  0  0  0  0  0
    2.6618   -2.8249   -1.0336 S   0  0  0  0  0  0  0  0  0  0  0  0
    1.1763   -0.3044   -1.7276 O   0  0  0  0  0  0  0  0  0  0  0  0
    0.3483    0.7937   -1.4021 C   0  0  0  0  0  0  0  0  0  0  0  0
   -0.8665    0.3890   -0.6218 C   0  0  0  0  0  0  0  0  0  0  0  0
   -1.9849    1.2357   -0.5832 C   0  0  0  0  0  0  0  0  0  0  0  0
   -3.1156    0.8866    0.1583 C   0  0  0  0  0  0  0  0  0  0  0  0
   -3.1384   -0.3082    0.8743 C   0  0  0  0  0  0  0  0  0  0  0  0
   -2.0289   -1.1508    0.8521 C   0  0  0  0  0  0  0  0  0  0  0  0
   -0.9005   -0.7950    0.1145 C   0  0  0  0  0  0  0  0  0  0  0  0
    0.1477   -1.6672    0.1317 O   0  0  0  0  0  0  0  0  0  0  0  0
  1  2  1  0
  3  2  1  1
  3  4  2  0
  3  5  1  0
  5  6  1  0
  6  7  1  0
  7  8  2  0
  8  9  1  0
  9 10  2  0
 10 11  1  0
 11 12  2  0
 12 13  1  0
 13  3  1  0
 12  7  1  0
M  END
