
     RDKit          3D

 19 20  0  0  0  0  0  0  0  0999 V2000
   -0.6206   -0.4571    1.3137 C   0  0  1  0  0  0  0  0  0  0  0  0
    0.1283    0.0835    0.0509 C   0  0  2  0  0  0  0  0  0  0  0  0
    1.4075   -0.7059   -0.2114 C   0  0  0  0  0  0  0  0  0  0  0  0
    2.0804   -1.2654    0.6453 O   0  0  0  0  0  0  0  0  0  0  0  0
    1.6978   -0.6953   -1.5465 O   0  0  0  0  0  0  0  0  0  0  0  0
    2.8949   -1.3860   -1.9323 C   0  0  0  0  0  0  0  0  0  0  0  0
    2.5985   -2.8566   -2.1591 C   0  0  0  0  0  0  0  0  0  0  0  0
    0.4504    1.5731    0.1346 C   0  0  0  0  0  0  0  0  0  0  0  0
   -0.0983    2.4618   -0.8062 C   0  0  0  0  0  0  0  0  0  0  0  0
    0.1879    3.8263   -0.7414 C   0  0  0  0  0  0  0  0  0  0  0  0
    1.0237    4.3057    0.2591 C   0  0  0  0  0  0  0  0  0  0  0  0
    1.2975    5.6154    0.3188 F   0  0  0  0  0  0  0  0  0  0  0  0
    1.5811    3.4461    1.1969 C   0  0  0  0  0  0  0  0  0  0  0  0
    1.2971    2.0810    1.1358 C   0  0  0  0  0  0  0  0  0  0  0  0
   -1.9605    0.2663    1.5763 C   0  0  0  0  0  0  0  0  0  0  0  0
   -3.0409   -0.1199    0.5679 C   0  0  0  0  0  0  0  0  0  0  0  0
   -3.1975   -1.6357    0.5065 C   0  0  0  0  0  0  0  0  0  0  0  0
   -1.8559   -2.3364    0.3084 C   0  0  0  0  0  0  0  0  0  0  0  0
   -0.8846   -1.9128    1.3117 N   0  0  0  0  0  0  0  0  0  0  0  0
  1  2  1  0
  2  3  1  1
  3  4  2  0
  3  5  1  0
  5  6  1  0
  6  7  1  0
  2  8  1  0
  8  9  2  0
  9 10  1  0
 10 11  2  0
 11 12  1  0
 11 13  1  0
 13 14  2  0
  1 15  1  6
 15 16  1  0
 16 17  1  0
 17 18  1  0
 18 19  1  0
 19  1  1  0
 14  8  1  0
M  END
