
     RDKit          3D

 18 18  0  0  0  0  0  0  0  0999 V2000
   -1.7034    2.0690   -2.3016 C   0  0  0  0  0  0  0  0  0  0  0  0
   -2.1821    1.1173   -1.2247 C   0  0  0  0  0  0  0  0  0  0  0  0
   -1.8066    1.6403    0.0378 O   0  0  0  0  0  0  0  0  0  0  0  0
   -1.7672    0.6542    1.3224 P   0  0  0  0  0  5  0  0  0  0  0  0
   -1.5439    1.5337    3.0348 S   0  0  0  0  0  0  0  0  0  0  0  0
   -3.1571   -0.1613    1.1349 O   0  0  0  0  0  0  0  0  0  0  0  0
   -3.4350   -1.2306    2.0240 C   0  0  0  0  0  0  0  0  0  0  0  0
   -4.5453   -2.0731    1.4303 C   0  0  0  0  0  0  0  0  0  0  0  0
   -0.6799   -0.4652    0.9016 O   0  0  0  0  0  0  0  0  0  0  0  0
    0.6498   -0.2559    0.6696 C   0  0  0  0  0  0  0  0  0  0  0  0
    1.4176   -1.4072    0.4857 C   0  0  0  0  0  0  0  0  0  0  0  0
    2.7877   -1.3105    0.2297 C   0  0  0  0  0  0  0  0  0  0  0  0
    3.3979   -0.0557    0.1450 C   0  0  0  0  0  0  0  0  0  0  0  0
    5.1722    0.0599   -0.1824 S   0  0  0  0  0  4  0  0  0  0  0  0
    5.1067   -0.3633   -1.9423 C   0  0  0  0  0  0  0  0  0  0  0  0
    5.5157    1.5180   -0.0907 O   0  0  0  0  0  0  0  0  0  0  0  0
    2.6250    1.0940    0.3347 C   0  0  0  0  0  0  0  0  0  0  0  0
    1.2532    0.9959    0.5927 C   0  0  0  0  0  0  0  0  0  0  0  0
  1  2  1  0
  2  3  1  0
  3  4  1  0
  4  5  2  0
  4  6  1  0
  6  7  1  0
  7  8  1  0
  4  9  1  0
  9 10  1  0
 10 11  2  0
 11 12  1  0
 12 13  2  0
 13 14  1  0
 14 15  1  6
 14 16  2  0
 13 17  1  0
 17 18  2  0
 18 10  1  0
M  END
