
     RDKit          3D

 26 27  0  0  0  0  0  0  0  0999 V2000
    4.0990   -1.4361   -3.1336 N   0  0  0  0  0  0  0  0  0  0  0  0
    3.2885   -1.0229   -2.4119 C   0  0  0  0  0  0  0  0  0  0  0  0
    2.3562   -0.4747   -1.4722 C   0  0  0  0  0  0  0  0  0  0  0  0
    1.0461   -0.6854   -1.6390 N   0  0  0  0  0  0  0  0  0  0  0  0
    0.4608   -0.0395   -0.5931 N   0  0  0  0  0  0  0  0  0  0  0  0
   -0.9363   -0.1186   -0.4094 C   0  0  0  0  0  0  0  0  0  0  0  0
   -1.8009    0.2729   -1.4435 C   0  0  0  0  0  0  0  0  0  0  0  0
   -1.2577    0.9824   -2.9261 Cl  0  0  0  0  0  0  0  0  0  0  0  0
   -3.1880    0.1848   -1.2685 C   0  0  0  0  0  0  0  0  0  0  0  0
   -3.7337   -0.2901   -0.0681 C   0  0  0  0  0  0  0  0  0  0  0  0
   -5.2290   -0.4058    0.1063 C   0  0  0  0  0  0  0  0  0  0  0  0
   -5.9196    0.5187   -0.6146 F   0  0  0  0  0  0  0  0  0  0  0  0
   -5.6987   -1.6203   -0.2836 F   0  0  0  0  0  0  0  0  0  0  0  0
   -5.6231   -0.2431    1.3986 F   0  0  0  0  0  0  0  0  0  0  0  0
   -2.8620   -0.6979    0.9512 C   0  0  0  0  0  0  0  0  0  0  0  0
   -1.4728   -0.6184    0.7868 C   0  0  0  0  0  0  0  0  0  0  0  0
   -0.5134   -1.2834    2.0639 Cl  0  0  0  0  0  0  0  0  0  0  0  0
    1.3990    0.6329    0.1928 C   0  0  0  0  0  0  0  0  0  0  0  0
    1.0989    1.4405    1.2404 N   0  0  0  0  0  0  0  0  0  0  0  0
    2.6235    0.3194   -0.3494 C   0  0  0  0  0  0  0  0  0  0  0  0
    4.2263    0.8645    0.2187 S   0  0  0  0  0  4  0  0  0  0  0  0
    3.9853    2.0582    1.1047 O   0  0  0  0  0  0  0  0  0  0  0  0
    4.6081   -0.5960    1.2284 C   0  0  0  0  0  0  0  0  0  0  0  0
    3.7085   -0.8047    2.2209 F   0  0  0  0  0  0  0  0  0  0  0  0
    5.8311   -0.4982    1.8083 F   0  0  0  0  0  0  0  0  0  0  0  0
    4.6261   -1.7226    0.4682 F   0  0  0  0  0  0  0  0  0  0  0  0
  1  2  3  0
  2  3  1  0
  3  4  2  0
  4  5  1  0
  5  6  1  0
  6  7  2  0
  7  8  1  0
  7  9  1  0
  9 10  2  0
 10 11  1  0
 11 12  1  0
 11 13  1  0
 11 14  1  0
 10 15  1  0
 15 16  2  0
 16 17  1  0
  5 18  1  0
 18 19  1  0
 18 20  2  0
 20 21  1  0
 21 22  2  0
 21 23  1  1
 23 24  1  0
 23 25  1  0
 23 26  1  0
 20  3  1  0
 16  6  1  0
M  END
