
     RDKit          3D

 27 29  0  0  0  0  0  0  0  0999 V2000
   -2.9494   -1.6490    0.4777 C   0  0  0  0  0  0  0  0  0  0  0  0
   -2.3105   -0.3366   -0.0038 C   0  0  1  0  0  0  0  0  0  0  0  0
   -2.9025    0.0860   -1.2355 O   0  0  0  0  0  0  0  0  0  0  0  0
   -2.5494    0.8244    0.9984 C   0  0  0  0  0  0  0  0  0  0  0  0
   -3.9479    1.1502    1.1917 N   0  0  0  0  0  0  0  0  0  0  0  0
   -4.7152    2.0065    0.4661 C   0  0  0  0  0  0  0  0  0  0  0  0
   -5.9258    2.0445    0.9735 N   0  0  0  0  0  0  0  0  0  0  0  0
   -5.8410    1.1911    2.0364 C   0  0  0  0  0  0  0  0  0  0  0  0
   -4.6471    0.6171    2.2115 N   0  0  0  0  0  0  0  0  0  0  0  0
   -0.8087   -0.5873   -0.2689 C   0  0  0  0  0  0  0  0  0  0  0  0
    0.1035   -0.4819    0.8090 C   0  0  0  0  0  0  0  0  0  0  0  0
    1.4770   -0.6747    0.6413 C   0  0  0  0  0  0  0  0  0  0  0  0
    1.9815   -0.9790   -0.6145 C   0  0  0  0  0  0  0  0  0  0  0  0
    3.3164   -1.2101   -0.8486 O   0  0  0  0  0  0  0  0  0  0  0  0
    4.2122   -0.2987   -0.3380 C   0  0  0  0  0  0  0  0  0  0  0  0
    4.0738    1.0795   -0.5281 C   0  0  0  0  0  0  0  0  0  0  0  0
    5.0381    1.9497   -0.0148 C   0  0  0  0  0  0  0  0  0  0  0  0
    6.1401    1.4370    0.6698 C   0  0  0  0  0  0  0  0  0  0  0  0
    7.3267    2.5104    1.3020 Cl  0  0  0  0  0  0  0  0  0  0  0  0
    6.2913    0.0609    0.8397 C   0  0  0  0  0  0  0  0  0  0  0  0
    5.3280   -0.8100    0.3268 C   0  0  0  0  0  0  0  0  0  0  0  0
    1.1091   -1.1518   -1.6839 C   0  0  0  0  0  0  0  0  0  0  0  0
   -0.2879   -0.9787   -1.5364 C   0  0  0  0  0  0  0  0  0  0  0  0
   -1.1326   -1.2332   -2.7768 C   0  0  0  0  0  0  0  0  0  0  0  0
   -1.4909   -0.0947   -3.4310 F   0  0  0  0  0  0  0  0  0  0  0  0
   -2.2760   -1.9381   -2.5387 F   0  0  0  0  0  0  0  0  0  0  0  0
   -0.4680   -1.9791   -3.7133 F   0  0  0  0  0  0  0  0  0  0  0  0
  2  1  1  1
  2  3  1  0
  2  4  1  0
  4  5  1  0
  5  6  1  0
  6  7  2  0
  7  8  1  0
  8  9  2  0
  2 10  1  0
 10 11  2  0
 11 12  1  0
 12 13  2  0
 13 14  1  0
 14 15  1  0
 15 16  2  0
 16 17  1  0
 17 18  2  0
 18 19  1  0
 18 20  1  0
 20 21  2  0
 13 22  1  0
 22 23  2  0
 23 24  1  0
 24 25  1  0
 24 26  1  0
 24 27  1  0
  9  5  1  0
 23 10  1  0
 21 15  1  0
M  END
