
     RDKit          3D

 11 12  0  0  0  0  0  0  0  0999 V2000
    2.4823   -1.4041    0.7316 C   0  0  0  0  0  0  0  0  0  0  0  0
    1.3709   -0.3623    0.8061 C   0  0  1  0  0  0  0  0  0  0  0  0
    1.8490    1.0059    0.2979 C   0  0  0  0  0  0  0  0  0  0  0  0
    1.4910    1.2093   -1.1646 C   0  0  0  0  0  0  0  0  0  0  0  0
   -0.0088    1.0229   -1.4023 C   0  0  0  0  0  0  0  0  0  0  0  0
   -0.6635    0.1079   -0.3615 C   0  0  2  0  0  0  0  0  0  0  0  0
   -1.9007   -0.5913   -0.9138 C   0  0  0  0  0  0  0  0  0  0  0  0
   -2.6503   -0.9267    0.3532 C   0  0  0  0  0  0  0  0  0  0  0  0
   -2.3709    0.2847    1.2164 C   0  0  0  0  0  0  0  0  0  0  0  0
   -1.1436    0.8691    0.7590 O   0  0  0  0  0  0  0  0  0  0  0  0
    0.2642   -0.8889    0.0635 O   0  0  0  0  0  0  0  0  0  0  0  0
  2  1  1  6
  2  3  1  0
  3  4  1  0
  4  5  1  0
  6  5  1  6
  6  7  1  0
  7  8  1  0
  8  9  1  0
  9 10  1  0
  6 11  1  0
 11  2  1  0
 10  6  1  0
M  END
