
     RDKit          3D

 25 27  0  0  0  0  0  0  0  0999 V2000
   -4.9593    0.6472    0.0114 C   0  0  0  0  0  0  0  0  0  0  0  0
   -4.2582   -0.7101    0.1904 C   0  0  0  0  0  0  0  0  0  0  0  0
   -5.2302   -1.6206    0.9814 C   0  0  0  0  0  0  0  0  0  0  0  0
   -4.0400   -1.3476   -1.1937 C   0  0  0  0  0  0  0  0  0  0  0  0
   -2.9154   -0.5839    0.9835 C   0  0  1  0  0  0  0  0  0  0  0  0
   -2.4815   -1.9242    1.3253 O   0  0  0  0  0  0  0  0  0  0  0  0
   -1.7173    0.1421    0.3032 C   0  0  2  0  0  0  0  0  0  0  0  0
   -0.6011   -0.0237    1.2159 O   0  0  0  0  0  0  0  0  0  0  0  0
    0.6695   -0.0546    0.7145 C   0  0  0  0  0  0  0  0  0  0  0  0
    1.6418   -0.4501    1.6352 C   0  0  0  0  0  0  0  0  0  0  0  0
    2.9887   -0.5240    1.2662 C   0  0  0  0  0  0  0  0  0  0  0  0
    3.3978   -0.1955   -0.0335 C   0  0  0  0  0  0  0  0  0  0  0  0
    4.8145   -0.2659   -0.4256 C   0  0  0  0  0  0  0  0  0  0  0  0
    5.4644    0.8427   -0.9933 C   0  0  0  0  0  0  0  0  0  0  0  0
    6.8106    0.7778   -1.3634 C   0  0  0  0  0  0  0  0  0  0  0  0
    7.5301   -0.3985   -1.1725 C   0  0  0  0  0  0  0  0  0  0  0  0
    6.9050   -1.5094   -0.6125 C   0  0  0  0  0  0  0  0  0  0  0  0
    5.5590   -1.4428   -0.2421 C   0  0  0  0  0  0  0  0  0  0  0  0
    2.4114    0.2093   -0.9463 C   0  0  0  0  0  0  0  0  0  0  0  0
    1.0606    0.2820   -0.5786 C   0  0  0  0  0  0  0  0  0  0  0  0
   -1.9228    1.5619    0.0985 N   0  0  0  0  0  0  0  0  0  0  0  0
   -2.0193    2.5382    1.0432 C   0  0  0  0  0  0  0  0  0  0  0  0
   -2.1767    3.7029    0.4583 N   0  0  0  0  0  0  0  0  0  0  0  0
   -2.1333    3.3901   -0.8696 C   0  0  0  0  0  0  0  0  0  0  0  0
   -1.9745    2.0924   -1.1440 N   0  0  0  0  0  0  0  0  0  0  0  0
  1  2  1  0
  2  3  1  0
  2  4  1  0
  2  5  1  0
  5  6  1  6
  5  7  1  0
  7  8  1  1
  8  9  1  0
  9 10  2  0
 10 11  1  0
 11 12  2  0
 12 13  1  0
 13 14  2  0
 14 15  1  0
 15 16  2  0
 16 17  1  0
 17 18  2  0
 12 19  1  0
 19 20  2  0
  7 21  1  0
 21 22  1  0
 22 23  2  0
 23 24  1  0
 24 25  2  0
 20  9  1  0
 25 21  1  0
 18 13  1  0
M  END
