
     RDKit          3D

 14 15  0  0  0  0  0  0  0  0999 V2000
    4.0030   -0.6177   -0.3744 C   0  0  0  0  0  0  0  0  0  0  0  0
    2.7026   -0.0671   -0.0798 N   0  0  0  0  0  0  0  0  0  0  0  0
    2.4419    0.6719    1.0364 C   0  0  0  0  0  0  0  0  0  0  0  0
    3.2498    1.0785    1.8569 O   0  0  0  0  0  0  0  0  0  0  0  0
    0.9533    0.8263    1.1656 C   0  0  0  0  0  0  0  0  0  0  0  0
    0.4261    0.4031   -0.2029 C   0  0  2  0  0  0  0  0  0  0  0  0
   -0.9150   -0.3286   -0.2162 C   0  0  1  0  0  0  0  0  0  0  0  0
   -1.8999    0.0667    0.8909 C   0  0  0  0  0  0  0  0  0  0  0  0
   -3.2634   -0.3164    0.3295 C   0  0  0  0  0  0  0  0  0  0  0  0
   -3.2145    0.1408   -1.1212 C   0  0  0  0  0  0  0  0  0  0  0  0
   -1.7439    0.0323   -1.4387 C   0  0  0  0  0  0  0  0  0  0  0  0
   -1.2828    0.2379   -2.5538 O   0  0  0  0  0  0  0  0  0  0  0  0
    1.5563   -0.4697   -0.7053 C   0  0  0  0  0  0  0  0  0  0  0  0
    1.4565   -1.3728   -1.5199 O   0  0  0  0  0  0  0  0  0  0  0  0
  1  2  1  0
  2  3  1  0
  3  4  2  0
  3  5  1  0
  6  5  1  1
  6  7  1  0
  7  8  1  1
  8  9  1  0
  9 10  1  0
 10 11  1  0
 11 12  2  0
  6 13  1  0
 13 14  2  0
 13  2  1  0
 11  7  1  0
M  END
