
     RDKit          3D

 24 25  0  0  0  0  0  0  0  0999 V2000
   -1.7121    4.5845   -0.7276 C   0  0  0  0  0  0  0  0  0  0  0  0
   -2.1373    3.3629   -0.1230 O   0  0  0  0  0  0  0  0  0  0  0  0
   -1.4648    2.2602   -0.5636 C   0  0  0  0  0  0  0  0  0  0  0  0
   -0.6373    2.2817   -1.4705 O   0  0  0  0  0  0  0  0  0  0  0  0
   -1.9554    0.9778    0.1412 C   0  0  2  0  0  0  0  0  0  0  0  0
   -2.5828    1.2241    1.5160 C   0  0  0  0  0  0  0  0  0  0  0  0
   -0.8648   -0.0268    0.1731 N   0  0  0  0  0  0  0  0  0  0  0  0
    0.3227    0.2839    0.8425 C   0  0  0  0  0  0  0  0  0  0  0  0
    0.4482    1.3336    1.4791 O   0  0  0  0  0  0  0  0  0  0  0  0
    1.4766   -0.7133    0.7173 C   0  0  0  0  0  0  0  0  0  0  0  0
    2.8159   -0.0545    0.4661 C   0  0  0  0  0  0  0  0  0  0  0  0
    2.9935    0.8047   -0.6290 C   0  0  0  0  0  0  0  0  0  0  0  0
    4.2369    1.3875   -0.8774 C   0  0  0  0  0  0  0  0  0  0  0  0
    5.3170    1.1116   -0.0417 C   0  0  0  0  0  0  0  0  0  0  0  0
    5.1548    0.2527    1.0435 C   0  0  0  0  0  0  0  0  0  0  0  0
    3.9115   -0.3304    1.2955 C   0  0  0  0  0  0  0  0  0  0  0  0
   -1.2166   -1.3581   -0.1930 C   0  0  0  0  0  0  0  0  0  0  0  0
   -1.3632   -1.6744   -1.5642 C   0  0  0  0  0  0  0  0  0  0  0  0
   -1.1030   -0.6708   -2.6563 C   0  0  0  0  0  0  0  0  0  0  0  0
   -1.7369   -2.9753   -1.9350 C   0  0  0  0  0  0  0  0  0  0  0  0
   -1.9391   -3.9583   -0.9728 C   0  0  0  0  0  0  0  0  0  0  0  0
   -1.7759   -3.6526    0.3745 C   0  0  0  0  0  0  0  0  0  0  0  0
   -1.4175   -2.3570    0.7872 C   0  0  0  0  0  0  0  0  0  0  0  0
   -1.3180   -2.1325    2.2727 C   0  0  0  0  0  0  0  0  0  0  0  0
  1  2  1  0
  2  3  1  0
  3  4  2  0
  3  5  1  0
  5  6  1  1
  5  7  1  0
  7  8  1  0
  8  9  2  0
  8 10  1  0
 10 11  1  0
 11 12  2  0
 12 13  1  0
 13 14  2  0
 14 15  1  0
 15 16  2  0
  7 17  1  0
 17 18  2  0
 18 19  1  0
 18 20  1  0
 20 21  2  0
 21 22  1  0
 22 23  2  0
 23 24  1  0
 16 11  1  0
 23 17  1  0
M  END
