
     RDKit          3D

 23 24  0  0  0  0  0  0  0  0999 V2000
   -3.4037    3.3925    1.8629 F   0  0  0  0  0  0  0  0  0  0  0  0
   -2.7653    2.4973    1.0585 C   0  0  0  0  0  0  0  0  0  0  0  0
   -3.0348    2.8792   -0.2200 F   0  0  0  0  0  0  0  0  0  0  0  0
   -1.2562    2.4990    1.3311 C   0  0  0  0  0  0  0  0  0  0  0  0
   -0.7225    3.7306    1.1229 F   0  0  0  0  0  0  0  0  0  0  0  0
   -1.0025    2.1930    2.6326 F   0  0  0  0  0  0  0  0  0  0  0  0
   -0.5230    1.6002    0.4942 O   0  0  0  0  0  0  0  0  0  0  0  0
   -0.1843    0.3786    1.1421 C   0  0  0  0  0  0  0  0  0  0  0  0
    0.3506   -0.6621    0.1275 C   0  0  1  0  0  0  0  0  0  0  0  0
   -0.5322   -0.7693   -1.1296 C   0  0  0  0  0  0  0  0  0  0  0  0
   -1.8182   -1.3768   -0.8568 N   0  0  0  0  0  0  0  0  0  0  0  0
   -2.2042   -2.6531   -1.1223 C   0  0  0  0  0  0  0  0  0  0  0  0
   -3.4450   -2.8242   -0.7295 N   0  0  0  0  0  0  0  0  0  0  0  0
   -3.7814   -1.6008   -0.2269 C   0  0  0  0  0  0  0  0  0  0  0  0
   -2.8097   -0.6830   -0.2637 N   0  0  0  0  0  0  0  0  0  0  0  0
    1.8118   -0.4571   -0.2884 C   0  0  0  0  0  0  0  0  0  0  0  0
    2.3487    0.8336   -0.4480 C   0  0  0  0  0  0  0  0  0  0  0  0
    3.6784    1.0216   -0.8378 C   0  0  0  0  0  0  0  0  0  0  0  0
    4.4918   -0.0777   -1.0862 C   0  0  0  0  0  0  0  0  0  0  0  0
    6.1258    0.1576   -1.5672 Cl  0  0  0  0  0  0  0  0  0  0  0  0
    3.9867   -1.3657   -0.9574 C   0  0  0  0  0  0  0  0  0  0  0  0
    2.6568   -1.5542   -0.5682 C   0  0  0  0  0  0  0  0  0  0  0  0
    2.0967   -3.1898   -0.4753 Cl  0  0  0  0  0  0  0  0  0  0  0  0
  1  2  1  0
  2  3  1  0
  2  4  1  0
  4  5  1  0
  4  6  1  0
  4  7  1  0
  7  8  1  0
  9  8  1  1
  9 10  1  0
 10 11  1  0
 11 12  1  0
 12 13  2  0
 13 14  1  0
 14 15  2  0
  9 16  1  0
 16 17  2  0
 17 18  1  0
 18 19  2  0
 19 20  1  0
 19 21  1  0
 21 22  2  0
 22 23  1  0
 15 11  1  0
 22 16  1  0
M  END
