
     RDKit          3D

 15 16  0  0  0  0  0  0  0  0999 V2000
    2.0217    2.4249   -0.5467 C   0  0  0  0  0  0  0  0  0  0  0  0
    2.2073    1.1731    0.0798 O   0  0  0  0  0  0  0  0  0  0  0  0
    2.0922   -0.1302   -0.8648 P   0  0  0  0  0  5  0  0  0  0  0  0
    2.9232   -0.0525   -2.1100 O   0  0  0  0  0  0  0  0  0  0  0  0
    2.4745   -1.3546    0.1103 O   0  0  0  0  0  0  0  0  0  0  0  0
    3.8201   -1.4329    0.5294 C   0  0  0  0  0  0  0  0  0  0  0  0
    0.5083   -0.3079   -1.1290 O   0  0  0  0  0  0  0  0  0  0  0  0
   -0.4301   -0.3270   -0.2626 C   0  0  0  0  0  0  0  0  0  0  0  0
   -0.6108   -0.3923    1.1100 C   0  0  0  0  0  0  0  0  0  0  0  0
    0.4670   -0.3508    2.5126 Cl  0  0  0  0  0  0  0  0  0  0  0  0
   -2.0050    0.1408    0.8873 C   0  0  2  0  0  0  0  0  0  0  0  0
   -3.3479   -0.2398    1.3323 C   0  0  0  0  0  0  0  0  0  0  0  0
   -4.0751   -0.3383    0.2002 C   0  0  0  0  0  0  0  0  0  0  0  0
   -3.1623   -0.2695   -1.0290 C   0  0  0  0  0  0  0  0  0  0  0  0
   -1.8790   -0.7734   -0.3904 C   0  0  1  0  0  0  0  0  0  0  0  0
  1  2  1  0
  2  3  1  0
  3  4  2  0
  3  5  1  0
  5  6  1  0
  3  7  1  0
  7  8  1  0
  8  9  2  0
  9 10  1  0
  9 11  1  0
 11 12  1  1
 12 13  2  0
 13 14  1  0
 15 14  1  6
 15  8  1  0
 15 11  1  0
M  END
