
     RDKit          3D

 12 11  0  0  0  0  0  0  0  0999 V2000
   -3.2261   -0.9891   -1.4972 C   0  0  0  0  0  0  0  0  0  0  0  0
   -2.2904   -0.1280   -0.6374 C   0  0  1  0  0  0  0  0  0  0  0  0
   -2.8463    0.0370    0.7854 C   0  0  0  0  0  0  0  0  0  0  0  0
   -4.0909    0.8899    0.8072 C   0  0  0  0  0  0  0  0  0  0  0  0
   -4.1351    2.0068    1.3136 O   0  0  0  0  0  0  0  0  0  0  0  0
   -0.8855   -0.7684   -0.6390 C   0  0  0  0  0  0  0  0  0  0  0  0
    0.1997    0.1178   -0.0149 C   0  0  0  0  0  0  0  0  0  0  0  0
    1.5921   -0.5023   -0.2048 C   0  0  0  0  0  0  0  0  0  0  0  0
    2.7348    0.2680    0.4892 C   0  0  0  0  0  0  0  0  0  0  0  0
    4.0627   -0.4666    0.2771 C   0  0  0  0  0  0  0  0  0  0  0  0
    2.8574    1.7080   -0.0105 C   0  0  0  0  0  0  0  0  0  0  0  0
    2.4821    0.3224    1.8945 O   0  0  0  0  0  0  0  0  0  0  0  0
  2  1  1  6
  2  3  1  0
  3  4  1  0
  4  5  2  0
  2  6  1  0
  6  7  1  0
  7  8  1  0
  8  9  1  0
  9 10  1  0
  9 11  1  0
  9 12  1  0
M  END
