
     RDKit          3D

 18 19  0  0  0  0  0  0  0  0999 V2000
    4.8251    0.1378   -1.3470 C   0  0  0  0  0  0  0  0  0  0  0  0
    3.6032    0.0059   -0.4770 C   0  0  0  0  0  0  0  0  0  0  0  0
    3.1846   -1.0959   -0.1245 O   0  0  0  0  0  0  0  0  0  0  0  0
    2.9513    1.3011   -0.0211 C   0  0  0  0  0  0  0  0  0  0  0  0
    1.5347    1.1328    0.5223 C   0  0  2  0  0  0  0  0  0  0  0  0
    1.4236    0.3700    1.8384 C   0  0  0  0  0  0  0  0  0  0  0  0
    0.3509   -0.6505    1.5849 C   0  0  0  0  0  0  0  0  0  0  0  0
   -0.0920   -1.4032    2.4407 O   0  0  0  0  0  0  0  0  0  0  0  0
   -0.0257   -0.5858    0.2759 N   0  0  0  0  0  0  0  0  0  0  0  0
   -1.0115   -1.4632   -0.3134 C   0  0  0  0  0  0  0  0  0  0  0  0
   -2.3948   -0.8583   -0.2495 C   0  0  0  0  0  0  0  0  0  0  0  0
   -3.2085   -1.0618    0.8743 C   0  0  0  0  0  0  0  0  0  0  0  0
   -4.4766   -0.4833    0.9435 C   0  0  0  0  0  0  0  0  0  0  0  0
   -4.9405    0.3094   -0.1049 C   0  0  0  0  0  0  0  0  0  0  0  0
   -4.1355    0.5287   -1.2213 C   0  0  0  0  0  0  0  0  0  0  0  0
   -2.8669   -0.0487   -1.2928 C   0  0  0  0  0  0  0  0  0  0  0  0
    0.6503    0.3654   -0.4271 C   0  0  0  0  0  0  0  0  0  0  0  0
    0.5663    0.6036   -1.6239 O   0  0  0  0  0  0  0  0  0  0  0  0
  1  2  1  0
  2  3  2  0
  2  4  1  0
  5  4  1  6
  5  6  1  0
  6  7  1  0
  7  8  2  0
  7  9  1  0
  9 10  1  0
 10 11  1  0
 11 12  2  0
 12 13  1  0
 13 14  2  0
 14 15  1  0
 15 16  2  0
  9 17  1  0
 17 18  2  0
 17  5  1  0
 16 11  1  0
M  END
