
     RDKit          3D

 24 26  0  0  0  0  0  0  0  0999 V2000
   -6.2400   -0.3065   -0.2005 C   0  0  0  0  0  0  0  0  0  0  0  0
   -4.7604   -0.2636   -0.4664 C   0  0  0  0  0  0  0  0  0  0  0  0
   -4.3115   -1.0385   -1.6744 C   0  0  0  0  0  0  0  0  0  0  0  0
   -3.9236    0.4239    0.3352 C   0  0  0  0  0  0  0  0  0  0  0  0
   -2.4649    0.5446    0.1977 C   0  0  2  0  0  0  0  0  0  0  0  0
   -1.7794    1.7913    0.7215 C   0  0  1  0  0  0  0  0  0  0  0  0
   -0.4827    1.7211    1.4338 C   0  0  0  0  0  0  0  0  0  0  0  0
    0.3608    2.5962    1.3173 O   0  0  0  0  0  0  0  0  0  0  0  0
   -0.3828    0.6092    2.1994 O   0  0  0  0  0  0  0  0  0  0  0  0
    0.8718    0.4466    2.8633 C   0  0  0  0  0  0  0  0  0  0  0  0
    1.8756   -0.0248    1.9487 N   0  0  0  0  0  0  0  0  0  0  0  0
    1.7743   -1.1622    1.2139 C   0  0  0  0  0  0  0  0  0  0  0  0
    0.8427   -1.9395    1.1206 O   0  0  0  0  0  0  0  0  0  0  0  0
    3.0600   -1.3335    0.5349 C   0  0  0  0  0  0  0  0  0  0  0  0
    3.8822   -0.3741    0.9640 C   0  0  0  0  0  0  0  0  0  0  0  0
    5.2969   -0.2182    0.5544 C   0  0  0  0  0  0  0  0  0  0  0  0
    5.7902   -1.4757   -0.1841 C   0  0  0  0  0  0  0  0  0  0  0  0
    4.7385   -2.0378   -1.1552 C   0  0  0  0  0  0  0  0  0  0  0  0
    3.4125   -2.3799   -0.4522 C   0  0  0  0  0  0  0  0  0  0  0  0
    3.1542    0.4348    1.9435 C   0  0  0  0  0  0  0  0  0  0  0  0
    3.6625    1.2964    2.6364 O   0  0  0  0  0  0  0  0  0  0  0  0
   -1.8561    1.5380   -0.7789 C   0  0  0  0  0  0  0  0  0  0  0  0
   -2.7331    2.4658   -1.5852 C   0  0  0  0  0  0  0  0  0  0  0  0
   -0.6215    1.0892   -1.5241 C   0  0  0  0  0  0  0  0  0  0  0  0
  1  2  1  0
  2  3  1  0
  2  4  2  3
  5  4  1  6
  5  6  1  0
  6  7  1  1
  7  8  2  0
  7  9  1  0
  9 10  1  0
 10 11  1  0
 11 12  1  0
 12 13  2  0
 12 14  1  0
 14 15  2  0
 15 16  1  0
 16 17  1  0
 17 18  1  0
 18 19  1  0
 15 20  1  0
 20 21  2  0
  6 22  1  0
 22 23  1  0
 22 24  1  0
 22  5  1  0
 20 11  1  0
 19 14  1  0
M  END
