
     RDKit          3D

 12 12  0  0  0  0  0  0  0  0999 V2000
    4.2951   -0.4172   -0.1521 C   0  0  0  0  0  0  0  0  0  0  0  0
    3.6080    0.3993    0.9315 C   0  0  0  0  0  0  0  0  0  0  0  0
    2.2607    0.9802    0.4974 C   0  0  0  0  0  0  0  0  0  0  0  0
    1.1998   -0.0884    0.2224 C   0  0  0  0  0  0  0  0  0  0  0  0
   -0.1566    0.5493   -0.1054 C   0  0  0  0  0  0  0  0  0  0  0  0
   -1.2206   -0.5070   -0.4068 C   0  0  1  0  0  0  0  0  0  0  0  0
   -1.5050   -1.2753    0.7687 O   0  0  0  0  0  0  0  0  0  0  0  0
   -2.7934   -1.7236    0.7043 C   0  0  0  0  0  0  0  0  0  0  0  0
   -3.2951   -2.4965    1.5034 O   0  0  0  0  0  0  0  0  0  0  0  0
   -3.4762   -1.1521   -0.5038 C   0  0  0  0  0  0  0  0  0  0  0  0
   -2.5782    0.0217   -0.8582 C   0  0  1  0  0  0  0  0  0  0  0  0
   -3.0412    1.2939   -0.1440 C   0  0  0  0  0  0  0  0  0  0  0  0
  1  2  1  0
  2  3  1  0
  3  4  1  0
  4  5  1  0
  6  5  1  1
  6  7  1  0
  7  8  1  0
  8  9  2  0
  8 10  1  0
 10 11  1  0
 11 12  1  1
 11  6  1  0
M  END
