
     RDKit          3D

 18 18  0  0  0  0  0  0  0  0999 V2000
   -0.6809    3.3280   -1.4429 C   0  0  0  0  0  0  0  0  0  0  0  0
   -1.6156    2.1662   -1.7098 C   0  0  0  0  0  0  0  0  0  0  0  0
   -1.9366    1.5518   -0.4724 O   0  0  0  0  0  0  0  0  0  0  0  0
   -2.4770    0.0240   -0.4875 P   0  0  0  0  0  5  0  0  0  0  0  0
   -4.0946   -0.2812   -1.5130 S   0  0  0  0  0  0  0  0  0  0  0  0
   -2.5895   -0.2836    1.0986 O   0  0  0  0  0  0  0  0  0  0  0  0
   -2.7974   -1.6206    1.5249 C   0  0  0  0  0  0  0  0  0  0  0  0
   -3.9074   -1.6368    2.5551 C   0  0  0  0  0  0  0  0  0  0  0  0
   -1.1839   -0.8279   -0.9467 O   0  0  0  0  0  0  0  0  0  0  0  0
    0.0751   -0.7963   -0.4185 C   0  0  0  0  0  0  0  0  0  0  0  0
    0.4706   -0.0063    0.6574 C   0  0  0  0  0  0  0  0  0  0  0  0
    1.7919   -0.0570    1.1158 C   0  0  0  0  0  0  0  0  0  0  0  0
    2.7256   -0.8948    0.4970 C   0  0  0  0  0  0  0  0  0  0  0  0
    4.4252   -0.9500    1.1094 S   0  0  0  0  0  4  0  0  0  0  0  0
    4.9777    0.6134    0.3804 C   0  0  0  0  0  0  0  0  0  0  0  0
    5.1002   -2.0561    0.3520 O   0  0  0  0  0  0  0  0  0  0  0  0
    2.3216   -1.6920   -0.5764 C   0  0  0  0  0  0  0  0  0  0  0  0
    1.0024   -1.6396   -1.0324 C   0  0  0  0  0  0  0  0  0  0  0  0
  1  2  1  0
  2  3  1  0
  3  4  1  0
  4  5  2  0
  4  6  1  0
  6  7  1  0
  7  8  1  0
  4  9  1  0
  9 10  1  0
 10 11  2  0
 11 12  1  0
 12 13  2  0
 13 14  1  0
 14 15  1  6
 14 16  2  0
 13 17  1  0
 17 18  2  0
 18 10  1  0
M  END
