
     RDKit          3D

 19 20  0  0  0  0  0  0  0  0999 V2000
    0.5272    0.8136    2.3316 O   0  0  0  0  0  0  0  0  0  0  0  0
    1.1746    0.2701    1.4491 C   0  0  0  0  0  0  0  0  0  0  0  0
    2.6747    0.0359    1.5302 C   0  0  1  0  0  0  0  0  0  0  0  0
    2.9518   -1.4130    2.5337 Cl  0  0  0  0  0  0  0  0  0  0  0  0
    3.0689   -0.2129    0.0757 C   0  0  2  0  0  0  0  0  0  0  0  0
    3.3683    1.0910   -0.6726 C   0  0  0  0  0  0  0  0  0  0  0  0
    4.8856    1.8250   -0.1004 Cl  0  0  0  0  0  0  0  0  0  0  0  0
    1.8188   -0.8731   -0.4954 C   0  0  0  0  0  0  0  0  0  0  0  0
    0.7224   -0.2681    0.2276 N   0  0  0  0  0  0  0  0  0  0  0  0
   -0.6292   -0.3578   -0.2072 C   0  0  0  0  0  0  0  0  0  0  0  0
   -0.9691   -1.1258   -1.3320 C   0  0  0  0  0  0  0  0  0  0  0  0
   -2.2923   -1.2245   -1.7742 C   0  0  0  0  0  0  0  0  0  0  0  0
   -3.3063   -0.5522   -1.1005 C   0  0  0  0  0  0  0  0  0  0  0  0
   -3.0034    0.2289    0.0197 C   0  0  0  0  0  0  0  0  0  0  0  0
   -4.0883    0.9568    0.7755 C   0  0  0  0  0  0  0  0  0  0  0  0
   -5.2532    1.0612    0.0744 F   0  0  0  0  0  0  0  0  0  0  0  0
   -4.4130    0.3404    1.9445 F   0  0  0  0  0  0  0  0  0  0  0  0
   -3.7416    2.2324    1.1028 F   0  0  0  0  0  0  0  0  0  0  0  0
   -1.6663    0.3117    0.4569 C   0  0  0  0  0  0  0  0  0  0  0  0
  1  2  2  0
  2  3  1  0
  3  4  1  1
  3  5  1  0
  5  6  1  6
  6  7  1  0
  5  8  1  0
  8  9  1  0
  9 10  1  0
 10 11  2  0
 11 12  1  0
 12 13  2  0
 13 14  1  0
 14 15  1  0
 15 16  1  0
 15 17  1  0
 15 18  1  0
 14 19  2  0
  9  2  1  0
 19 10  1  0
M  END
