
     RDKit          3D

 25 27  0  0  0  0  0  0  0  0999 V2000
   -5.0220   -0.4441    0.2969 C   0  0  0  0  0  0  0  0  0  0  0  0
   -4.0301    0.0716    1.3551 C   0  0  0  0  0  0  0  0  0  0  0  0
   -4.6924   -0.1453    2.7377 C   0  0  0  0  0  0  0  0  0  0  0  0
   -3.8249    1.5836    1.1603 C   0  0  0  0  0  0  0  0  0  0  0  0
   -2.6656   -0.6879    1.3435 C   0  0  1  0  0  0  0  0  0  0  0  0
   -2.8961   -2.1025    1.4913 O   0  0  0  0  0  0  0  0  0  0  0  0
   -1.6640   -0.4088    0.1864 C   0  0  1  0  0  0  0  0  0  0  0  0
   -0.4877   -1.1995    0.4833 O   0  0  0  0  0  0  0  0  0  0  0  0
    0.7390   -0.6796    0.1814 C   0  0  0  0  0  0  0  0  0  0  0  0
    1.8051   -1.2708    0.8607 C   0  0  0  0  0  0  0  0  0  0  0  0
    3.1179   -0.8412    0.6414 C   0  0  0  0  0  0  0  0  0  0  0  0
    3.3972    0.1854   -0.2717 C   0  0  0  0  0  0  0  0  0  0  0  0
    4.7770    0.6409   -0.5073 C   0  0  0  0  0  0  0  0  0  0  0  0
    5.7920   -0.2686   -0.8488 C   0  0  0  0  0  0  0  0  0  0  0  0
    7.1021    0.1634   -1.0733 C   0  0  0  0  0  0  0  0  0  0  0  0
    7.4200    1.5141   -0.9589 C   0  0  0  0  0  0  0  0  0  0  0  0
    6.4295    2.4327   -0.6215 C   0  0  0  0  0  0  0  0  0  0  0  0
    5.1197    1.9992   -0.3984 C   0  0  0  0  0  0  0  0  0  0  0  0
    2.3168    0.7586   -0.9602 C   0  0  0  0  0  0  0  0  0  0  0  0
    1.0007    0.3293   -0.7416 C   0  0  0  0  0  0  0  0  0  0  0  0
   -2.1407   -0.7683   -1.1355 N   0  0  0  0  0  0  0  0  0  0  0  0
   -2.3939   -2.0095   -1.6351 C   0  0  0  0  0  0  0  0  0  0  0  0
   -2.7543   -1.9141   -2.8944 N   0  0  0  0  0  0  0  0  0  0  0  0
   -2.6924   -0.5722   -3.1318 C   0  0  0  0  0  0  0  0  0  0  0  0
   -2.3168    0.1758   -2.0905 N   0  0  0  0  0  0  0  0  0  0  0  0
  1  2  1  0
  2  3  1  0
  2  4  1  0
  2  5  1  0
  5  6  1  6
  5  7  1  0
  7  8  1  1
  8  9  1  0
  9 10  2  0
 10 11  1  0
 11 12  2  0
 12 13  1  0
 13 14  2  0
 14 15  1  0
 15 16  2  0
 16 17  1  0
 17 18  2  0
 12 19  1  0
 19 20  2  0
  7 21  1  0
 21 22  1  0
 22 23  2  0
 23 24  1  0
 24 25  2  0
 20  9  1  0
 25 21  1  0
 18 13  1  0
M  END
