
     RDKit          3D

 20 21  0  0  0  0  0  0  0  0999 V2000
   -2.4131   -2.4604    1.1314 C   0  0  0  0  0  0  0  0  0  0  0  0
   -1.6383   -2.1776   -0.1376 C   0  0  0  0  0  0  0  0  0  0  0  0
   -0.6423   -1.2070    0.1467 O   0  0  0  0  0  0  0  0  0  0  0  0
   -0.0809   -0.2797   -1.0723 P   0  0  2  0  0  5  0  0  0  0  0  0
    0.7098   -1.2984   -2.5452 S   0  0  0  0  0  0  0  0  0  0  0  0
    0.9792    0.6583   -0.2750 O   0  0  0  0  0  0  0  0  0  0  0  0
    2.0629    0.2603    0.4543 C   0  0  0  0  0  0  0  0  0  0  0  0
    2.4030   -1.0630    0.7188 C   0  0  0  0  0  0  0  0  0  0  0  0
    3.5363   -1.3532    1.4867 C   0  0  0  0  0  0  0  0  0  0  0  0
    4.3269   -0.3196    1.9990 C   0  0  0  0  0  0  0  0  0  0  0  0
    5.4799   -0.6202    2.7959 C   0  0  0  0  0  0  0  0  0  0  0  0
    6.4076   -0.8611    3.4497 N   0  0  0  0  0  0  0  0  0  0  0  0
    3.9804    1.0075    1.7375 C   0  0  0  0  0  0  0  0  0  0  0  0
    2.8522    1.2934    0.9650 C   0  0  0  0  0  0  0  0  0  0  0  0
   -1.4364    0.8631   -1.3617 C   0  0  0  0  0  0  0  0  0  0  0  0
   -1.9645    1.6043   -0.2909 C   0  0  0  0  0  0  0  0  0  0  0  0
   -3.0186    2.4959   -0.4901 C   0  0  0  0  0  0  0  0  0  0  0  0
   -3.5602    2.6594   -1.7626 C   0  0  0  0  0  0  0  0  0  0  0  0
   -3.0504    1.9306   -2.8346 C   0  0  0  0  0  0  0  0  0  0  0  0
   -1.9938    1.0389   -2.6370 C   0  0  0  0  0  0  0  0  0  0  0  0
  1  2  1  0
  2  3  1  0
  4  3  1  1
  4  5  2  0
  4  6  1  0
  6  7  1  0
  7  8  2  0
  8  9  1  0
  9 10  2  0
 10 11  1  0
 11 12  3  0
 10 13  1  0
 13 14  2  0
  4 15  1  0
 15 16  2  0
 16 17  1  0
 17 18  2  0
 18 19  1  0
 19 20  2  0
 14  7  1  0
 20 15  1  0
M  END
