
     RDKit          3D

 24 25  0  0  0  0  0  0  0  0999 V2000
   -4.7830   -0.7416    4.6798 C   0  0  0  0  0  0  0  0  0  0  0  0
   -4.8578    0.0441    3.7743 C   0  0  0  0  0  0  0  0  0  0  0  0
   -4.9474    1.0040    2.6668 C   0  0  0  0  0  0  0  0  0  0  0  0
   -3.7235    0.9720    1.9306 O   0  0  0  0  0  0  0  0  0  0  0  0
   -3.6957    1.8306    0.8724 C   0  0  0  0  0  0  0  0  0  0  0  0
   -4.6036    2.6034    0.5884 O   0  0  0  0  0  0  0  0  0  0  0  0
   -2.3550    1.7393    0.1374 C   0  0  2  0  0  0  0  0  0  0  0  0
   -2.4449    2.4563   -1.2061 C   0  0  0  0  0  0  0  0  0  0  0  0
   -2.0587    0.3600   -0.0925 O   0  0  0  0  0  0  0  0  0  0  0  0
   -0.7610   -0.0538    0.0111 C   0  0  0  0  0  0  0  0  0  0  0  0
    0.3699    0.7610   -0.0577 C   0  0  0  0  0  0  0  0  0  0  0  0
    1.6474    0.2001    0.0481 C   0  0  0  0  0  0  0  0  0  0  0  0
    1.7941   -1.1795    0.2019 C   0  0  0  0  0  0  0  0  0  0  0  0
    3.0255   -1.7762    0.3414 O   0  0  0  0  0  0  0  0  0  0  0  0
    3.9088   -1.5150   -0.6859 C   0  0  0  0  0  0  0  0  0  0  0  0
    4.8823   -0.6064   -0.4268 N   0  0  0  0  0  0  0  0  0  0  0  0
    5.7741   -0.3881   -1.4247 C   0  0  0  0  0  0  0  0  0  0  0  0
    5.7396   -1.0395   -2.6529 C   0  0  0  0  0  0  0  0  0  0  0  0
    6.9107   -0.6983   -3.8600 Cl  0  0  0  0  0  0  0  0  0  0  0  0
    4.7409   -1.9778   -2.8849 C   0  0  0  0  0  0  0  0  0  0  0  0
    3.8146   -2.2235   -1.8803 C   0  0  0  0  0  0  0  0  0  0  0  0
    2.8566   -3.1402   -2.0752 F   0  0  0  0  0  0  0  0  0  0  0  0
    0.6697   -1.9969    0.2824 C   0  0  0  0  0  0  0  0  0  0  0  0
   -0.6028   -1.4336    0.1736 C   0  0  0  0  0  0  0  0  0  0  0  0
  1  2  3  0
  2  3  1  0
  3  4  1  0
  4  5  1  0
  5  6  2  0
  5  7  1  0
  7  8  1  6
  7  9  1  0
  9 10  1  0
 10 11  2  0
 11 12  1  0
 12 13  2  0
 13 14  1  0
 14 15  1  0
 15 16  2  0
 16 17  1  0
 17 18  2  0
 18 19  1  0
 18 20  1  0
 20 21  2  0
 21 22  1  0
 13 23  1  0
 23 24  2  0
 24 10  1  0
 21 15  1  0
M  END
