
     RDKit          3D

 26 28  0  0  0  0  0  0  0  0999 V2000
   -4.7450    0.6506    2.4830 C   0  0  0  0  0  0  0  0  0  0  0  0
   -4.2472    0.0587    1.1846 C   0  0  0  0  0  0  0  0  0  0  0  0
   -3.2244   -1.0357    1.3958 C   0  0  0  0  0  0  0  0  0  0  0  0
   -5.2369   -0.0105    0.0311 C   0  0  2  0  0  0  0  0  0  0  0  0
   -5.2629   -1.1507   -0.9005 C   0  0  0  0  0  0  0  0  0  0  0  0
   -5.7844   -1.1767   -2.1387 C   0  0  0  0  0  0  0  0  0  0  0  0
   -6.5489    0.1996   -2.8474 Cl  0  0  0  0  0  0  0  0  0  0  0  0
   -5.7363   -2.6320   -3.0718 Cl  0  0  0  0  0  0  0  0  0  0  0  0
   -4.1137    1.0076   -0.0024 C   0  0  2  0  0  0  0  0  0  0  0  0
   -2.9817    0.9337   -0.9561 C   0  0  0  0  0  0  0  0  0  0  0  0
   -3.1447    0.8808   -2.1653 O   0  0  0  0  0  0  0  0  0  0  0  0
   -1.7873    1.0002   -0.3160 O   0  0  0  0  0  0  0  0  0  0  0  0
   -0.6614    0.9302   -1.1954 C   0  0  0  0  0  0  0  0  0  0  0  0
    0.5962    0.8270   -0.3682 C   0  0  0  0  0  0  0  0  0  0  0  0
    0.8408    1.7224    0.6843 C   0  0  0  0  0  0  0  0  0  0  0  0
    2.0065    1.6232    1.4469 C   0  0  0  0  0  0  0  0  0  0  0  0
    2.9483    0.6362    1.1600 C   0  0  0  0  0  0  0  0  0  0  0  0
    2.7326   -0.2370    0.0923 C   0  0  0  0  0  0  0  0  0  0  0  0
    3.6003   -1.2556   -0.2337 O   0  0  0  0  0  0  0  0  0  0  0  0
    4.9457   -0.9685   -0.2305 C   0  0  0  0  0  0  0  0  0  0  0  0
    5.7862   -1.8632    0.4328 C   0  0  0  0  0  0  0  0  0  0  0  0
    7.1640   -1.6447    0.4429 C   0  0  0  0  0  0  0  0  0  0  0  0
    7.6996   -0.5410   -0.2229 C   0  0  0  0  0  0  0  0  0  0  0  0
    6.8597    0.3396   -0.9071 C   0  0  0  0  0  0  0  0  0  0  0  0
    5.4811    0.1232   -0.9189 C   0  0  0  0  0  0  0  0  0  0  0  0
    1.5581   -0.1514   -0.6596 C   0  0  0  0  0  0  0  0  0  0  0  0
  1  2  1  0
  2  3  1  0
  2  4  1  0
  4  5  1  6
  5  6  2  3
  6  7  1  0
  6  8  1  0
  4  9  1  0
  9 10  1  6
 10 11  2  0
 10 12  1  0
 12 13  1  0
 13 14  1  0
 14 15  2  0
 15 16  1  0
 16 17  2  0
 17 18  1  0
 18 19  1  0
 19 20  1  0
 20 21  2  0
 21 22  1  0
 22 23  2  0
 23 24  1  0
 24 25  2  0
 18 26  2  0
  9  2  1  0
 26 14  1  0
 25 20  1  0
M  END
