
     RDKit          3D

  9 10  0  0  0  0  0  0  0  0999 V2000
    1.1560    0.0070    1.5938 C   0  0  0  0  0  0  0  0  0  0  0  0
    2.0807   -0.2618    0.6539 C   0  0  0  0  0  0  0  0  0  0  0  0
    1.7777   -0.0318   -0.8134 C   0  0  0  0  0  0  0  0  0  0  0  0
    0.3432    0.5257   -0.9547 C   0  0  2  0  0  0  0  0  0  0  0  0
    0.1302    1.7082    0.0496 C   0  0  0  0  0  0  0  0  0  0  0  0
   -0.1456    0.5695    1.0993 C   0  0  1  0  0  0  0  0  0  0  0  0
   -0.7770   -0.2410   -0.1209 C   0  0  0  0  0  0  0  0  0  0  0  0
   -0.7030   -1.7734   -0.0871 C   0  0  0  0  0  0  0  0  0  0  0  0
   -2.2296    0.1412   -0.4686 C   0  0  0  0  0  0  0  0  0  0  0  0
  1  2  2  0
  2  3  1  0
  4  3  1  1
  4  5  1  0
  6  5  1  6
  6  7  1  0
  7  8  1  0
  7  9  1  0
  6  1  1  0
  7  4  1  0
M  END
