
     RDKit          3D

 10 10  0  0  0  0  0  0  0  0999 V2000
    2.3378    0.9255    0.8420 C   0  0  0  0  0  0  0  0  0  0  0  0
    1.9184   -0.5130    1.1006 C   0  0  0  0  0  0  0  0  0  0  0  0
    1.4922   -1.2645   -0.1618 C   0  0  0  0  0  0  0  0  0  0  0  0
    0.2998   -0.6871   -0.9376 C   0  0  0  0  0  0  0  0  0  0  0  0
   -1.0266   -0.7294   -0.1662 C   0  0  2  0  0  0  0  0  0  0  0  0
   -2.2245   -0.3955   -1.0345 C   0  0  0  0  0  0  0  0  0  0  0  0
   -2.3027    1.1093   -0.9495 C   0  0  0  0  0  0  0  0  0  0  0  0
   -1.7361    1.3703    0.4119 C   0  0  0  0  0  0  0  0  0  0  0  0
   -1.8385    2.4146    1.0336 O   0  0  0  0  0  0  0  0  0  0  0  0
   -1.0503    0.2752    0.8535 O   0  0  0  0  0  0  0  0  0  0  0  0
  1  2  1  0
  2  3  1  0
  3  4  1  0
  5  4  1  6
  5  6  1  0
  6  7  1  0
  7  8  1  0
  8  9  2  0
  8 10  1  0
 10  5  1  0
M  END
