
     RDKit          3D

 10 10  0  0  0  0  0  0  0  0999 V2000
   -2.1241    0.5270   -1.2579 C   0  0  0  0  0  0  0  0  0  0  0  0
   -1.6662   -0.3210   -0.0790 C   0  0  1  0  0  0  0  0  0  0  0  0
   -0.1781   -0.2093    0.1742 C   0  0  0  0  0  0  0  0  0  0  0  0
    0.3860    0.9859    0.6493 C   0  0  0  0  0  0  0  0  0  0  0  0
    1.7602    1.0848    0.8799 C   0  0  0  0  0  0  0  0  0  0  0  0
    2.5824   -0.0133    0.6353 C   0  0  0  0  0  0  0  0  0  0  0  0
    2.0404   -1.2073    0.1624 C   0  0  0  0  0  0  0  0  0  0  0  0
    0.6652   -1.3038   -0.0674 C   0  0  0  0  0  0  0  0  0  0  0  0
    4.6274    0.1300    0.9767 I   0  0  0  0  0  0  0  0  0  0  0  0
   -2.3908    0.0777    1.0832 O   0  0  0  0  0  0  0  0  0  0  0  0
  2  1  1  6
  2  3  1  0
  3  4  2  0
  4  5  1  0
  5  6  2  0
  6  7  1  0
  7  8  2  0
  6  9  1  0
  2 10  1  0
  8  3  1  0
M  END
