
     RDKit          3D

 11 12  0  0  0  0  0  0  0  0999 V2000
    2.3218    1.6111    1.0176 O   0  0  0  0  0  0  0  0  0  0  0  0
    1.6214    1.1552   -0.1370 C   0  0  1  0  0  0  0  0  0  0  0  0
    2.1498   -0.2257   -0.5331 C   0  0  0  0  0  0  0  0  0  0  0  0
    1.1612   -1.2461    0.0440 C   0  0  0  0  0  0  0  0  0  0  0  0
    0.1885   -0.4433    0.9192 C   0  0  0  0  0  0  0  0  0  0  0  0
   -1.1742   -1.1165    1.0815 C   0  0  0  0  0  0  0  0  0  0  0  0
   -2.0772   -0.3683    2.6652 Br  0  0  0  0  0  0  0  0  0  0  0  0
   -2.0999   -0.9796   -0.1264 C   0  0  0  0  0  0  0  0  0  0  0  0
   -2.1514    0.4397   -0.6888 C   0  0  0  0  0  0  0  0  0  0  0  0
   -0.7558    0.9635   -1.0014 C   0  0  0  0  0  0  0  0  0  0  0  0
    0.1519    0.9341    0.2345 C   0  0  0  0  0  0  0  0  0  0  0  0
  2  1  1  1
  2  3  1  0
  3  4  1  0
  4  5  1  0
  5  6  1  0
  6  7  1  0
  6  8  1  0
  8  9  1  0
  9 10  1  0
 10 11  1  0
 11  2  1  0
 11  5  1  0
M  END
