
     RDKit          3D

 12 13  0  0  0  0  0  0  0  0999 V2000
   -3.0934   -0.9100    1.0224 C   0  0  0  0  0  0  0  0  0  0  0  0
   -2.2562    0.3631    1.0696 C   0  0  0  0  0  0  0  0  0  0  0  0
   -1.2312    0.4994   -0.0712 C   0  0  1  0  0  0  0  0  0  0  0  0
   -1.9045    0.4811   -1.4497 C   0  0  0  0  0  0  0  0  0  0  0  0
   -0.3744    1.7526    0.1176 C   0  0  0  0  0  0  0  0  0  0  0  0
    0.9247    1.3707   -0.5485 C   0  0  0  0  0  0  0  0  0  0  0  0
    1.0200   -0.1245   -0.2657 C   0  0  2  0  0  0  0  0  0  0  0  0
    1.9014   -0.4751    0.9319 C   0  0  0  0  0  0  0  0  0  0  0  0
    3.2049   -0.8649    0.2824 C   0  0  0  0  0  0  0  0  0  0  0  0
    2.7199   -1.5328   -0.9825 C   0  0  0  0  0  0  0  0  0  0  0  0
    1.5855   -0.7749   -1.4116 O   0  0  0  0  0  0  0  0  0  0  0  0
   -0.3069   -0.6008   -0.0083 O   0  0  0  0  0  0  0  0  0  0  0  0
  1  2  1  0
  2  3  1  0
  3  4  1  6
  3  5  1  0
  5  6  1  0
  7  6  1  6
  7  8  1  0
  8  9  1  0
  9 10  1  0
 10 11  1  0
  7 12  1  0
 12  3  1  0
 11  7  1  0
M  END
