
     RDKit          3D

 26 28  0  0  0  0  0  0  0  0999 V2000
    1.3654   -0.2351   -1.2379 C   0  0  0  0  0  0  0  0  0  0  0  0
    2.6147   -1.0590   -1.4590 C   0  0  0  0  0  0  0  0  0  0  0  0
    2.6676   -1.6833   -2.8317 C   0  0  0  0  0  0  0  0  0  0  0  0
    3.2173   -1.8539   -0.3059 C   0  0  2  0  0  0  0  0  0  0  0  0
    2.5803   -1.9143    1.0297 C   0  0  0  0  0  0  0  0  0  0  0  0
    3.1662   -1.5771    2.0467 O   0  0  0  0  0  0  0  0  0  0  0  0
    1.3278   -2.4268    0.9522 O   0  0  0  0  0  0  0  0  0  0  0  0
    0.5803   -2.4128    2.1730 C   0  0  0  0  0  0  0  0  0  0  0  0
   -0.3191   -1.2053    2.1641 C   0  0  0  0  0  0  0  0  0  0  0  0
    0.0731   -0.0181    2.8000 C   0  0  0  0  0  0  0  0  0  0  0  0
   -0.7451    1.1121    2.7595 C   0  0  0  0  0  0  0  0  0  0  0  0
   -1.9565    1.0720    2.0706 C   0  0  0  0  0  0  0  0  0  0  0  0
   -2.3379   -0.0950    1.4058 C   0  0  0  0  0  0  0  0  0  0  0  0
   -3.5273   -0.2179    0.7249 O   0  0  0  0  0  0  0  0  0  0  0  0
   -3.9015    0.8302   -0.0772 C   0  0  0  0  0  0  0  0  0  0  0  0
   -5.2001    1.3130    0.0756 C   0  0  0  0  0  0  0  0  0  0  0  0
   -5.6484    2.3566   -0.7306 C   0  0  0  0  0  0  0  0  0  0  0  0
   -4.8028    2.9049   -1.6996 C   0  0  0  0  0  0  0  0  0  0  0  0
   -3.5118    2.4034   -1.8689 C   0  0  0  0  0  0  0  0  0  0  0  0
   -3.0614    1.3579   -1.0632 C   0  0  0  0  0  0  0  0  0  0  0  0
   -1.5325   -1.2336    1.4649 C   0  0  0  0  0  0  0  0  0  0  0  0
    3.9337   -0.6272   -0.8360 C   0  0  2  0  0  0  0  0  0  0  0  0
    4.0210    0.6294   -0.0728 C   0  0  0  0  0  0  0  0  0  0  0  0
    4.1365    1.8726   -0.5630 C   0  0  0  0  0  0  0  0  0  0  0  0
    4.1963    2.1905   -2.2583 Cl  0  0  0  0  0  0  0  0  0  0  0  0
    4.2315    3.2301    0.5036 Cl  0  0  0  0  0  0  0  0  0  0  0  0
  1  2  1  0
  2  3  1  0
  2  4  1  0
  4  5  1  1
  5  6  2  0
  5  7  1  0
  7  8  1  0
  8  9  1  0
  9 10  2  0
 10 11  1  0
 11 12  2  0
 12 13  1  0
 13 14  1  0
 14 15  1  0
 15 16  2  0
 16 17  1  0
 17 18  2  0
 18 19  1  0
 19 20  2  0
 13 21  2  0
  4 22  1  0
 22 23  1  1
 23 24  2  3
 24 25  1  0
 24 26  1  0
 22  2  1  0
 21  9  1  0
 20 15  1  0
M  END
