
     RDKit          3D

  9  8  0  0  0  0  0  0  0  0999 V2000
    3.5497   -0.0077   -0.5174 C   0  0  0  0  0  0  0  0  0  0  0  0
    2.9497    0.6234    0.7295 C   0  0  0  0  0  0  0  0  0  0  0  0
    1.4783    1.0121    0.5702 C   0  0  0  0  0  0  0  0  0  0  0  0
    0.5506   -0.1904    0.3778 C   0  0  0  0  0  0  0  0  0  0  0  0
   -0.9199    0.2471    0.3300 C   0  0  0  0  0  0  0  0  0  0  0  0
   -1.8675   -0.9386    0.0971 C   0  0  2  0  0  0  0  0  0  0  0  0
   -3.3280   -0.6016   -0.0597 C   0  0  0  0  0  0  0  0  0  0  0  0
   -3.9148    0.5924    0.1033 C   0  0  0  0  0  0  0  0  0  0  0  0
   -1.7460   -1.8401    1.1944 O   0  0  0  0  0  0  0  0  0  0  0  0
  1  2  1  0
  2  3  1  0
  3  4  1  0
  4  5  1  0
  5  6  1  0
  6  7  1  0
  7  8  2  0
  6  9  1  1
M  END
