
     RDKit          3D

 10 10  0  0  0  0  0  0  0  0999 V2000
   -2.3193   -0.1975   -1.0478 C   0  0  0  0  0  0  0  0  0  0  0  0
   -1.5557   -0.6218    0.1993 C   0  0  1  0  0  0  0  0  0  0  0  0
   -0.1018   -0.2012    0.1609 C   0  0  0  0  0  0  0  0  0  0  0  0
    0.9101   -1.1639    0.0271 C   0  0  0  0  0  0  0  0  0  0  0  0
    2.2536   -0.7813   -0.0119 C   0  0  0  0  0  0  0  0  0  0  0  0
    2.5942    0.5662    0.0814 C   0  0  0  0  0  0  0  0  0  0  0  0
    1.6033    1.5356    0.2132 C   0  0  0  0  0  0  0  0  0  0  0  0
    0.2606    1.1531    0.2521 C   0  0  0  0  0  0  0  0  0  0  0  0
    4.2488    1.0351    0.0335 Cl  0  0  0  0  0  0  0  0  0  0  0  0
   -2.1958   -0.0608    1.3436 O   0  0  0  0  0  0  0  0  0  0  0  0
  2  1  1  6
  2  3  1  0
  3  4  2  0
  4  5  1  0
  5  6  2  0
  6  7  1  0
  7  8  2  0
  6  9  1  0
  2 10  1  0
  8  3  1  0
M  END
