
     RDKit          3D

 26 28  0  0  0  0  0  0  0  0999 V2000
   -3.7748    1.8382    1.3697 C   0  0  0  0  0  0  0  0  0  0  0  0
   -3.4526    0.8706    0.2569 C   0  0  0  0  0  0  0  0  0  0  0  0
   -2.6588   -0.3284    0.7298 C   0  0  0  0  0  0  0  0  0  0  0  0
   -4.4834    0.7223   -0.8525 C   0  0  2  0  0  0  0  0  0  0  0  0
   -4.7812   -0.6018   -1.4213 C   0  0  0  0  0  0  0  0  0  0  0  0
   -5.5914   -1.5424   -0.9079 C   0  0  0  0  0  0  0  0  0  0  0  0
   -5.8294   -3.0348   -1.7410 Cl  0  0  0  0  0  0  0  0  0  0  0  0
   -6.4329   -1.3185    0.5832 Cl  0  0  0  0  0  0  0  0  0  0  0  0
   -3.1853    1.4559   -1.1257 C   0  0  2  0  0  0  0  0  0  0  0  0
   -2.1142    0.9371   -2.0075 C   0  0  0  0  0  0  0  0  0  0  0  0
   -2.3353    0.5282   -3.1380 O   0  0  0  0  0  0  0  0  0  0  0  0
   -0.9002    1.0414   -1.4167 O   0  0  0  0  0  0  0  0  0  0  0  0
    0.1877    0.5888   -2.2216 C   0  0  0  0  0  0  0  0  0  0  0  0
    1.4601    1.0995   -1.5953 C   0  0  0  0  0  0  0  0  0  0  0  0
    2.1129    2.2242   -2.1221 C   0  0  0  0  0  0  0  0  0  0  0  0
    3.2671    2.7247   -1.5154 C   0  0  0  0  0  0  0  0  0  0  0  0
    3.7797    2.1074   -0.3758 C   0  0  0  0  0  0  0  0  0  0  0  0
    3.1458    0.9814    0.1469 C   0  0  0  0  0  0  0  0  0  0  0  0
    3.6684    0.4444    1.3017 O   0  0  0  0  0  0  0  0  0  0  0  0
    3.8853   -0.9155    1.3229 C   0  0  0  0  0  0  0  0  0  0  0  0
    4.5157   -1.6000    0.2803 C   0  0  0  0  0  0  0  0  0  0  0  0
    4.7478   -2.9718    0.3924 C   0  0  0  0  0  0  0  0  0  0  0  0
    4.3604   -3.6536    1.5454 C   0  0  0  0  0  0  0  0  0  0  0  0
    3.7469   -2.9649    2.5931 C   0  0  0  0  0  0  0  0  0  0  0  0
    3.5179   -1.5928    2.4856 C   0  0  0  0  0  0  0  0  0  0  0  0
    1.9799    0.4873   -0.4451 C   0  0  0  0  0  0  0  0  0  0  0  0
  1  2  1  0
  2  3  1  0
  2  4  1  0
  4  5  1  6
  5  6  2  3
  6  7  1  0
  6  8  1  0
  4  9  1  0
  9 10  1  6
 10 11  2  0
 10 12  1  0
 12 13  1  0
 13 14  1  0
 14 15  2  0
 15 16  1  0
 16 17  2  0
 17 18  1  0
 18 19  1  0
 19 20  1  0
 20 21  2  0
 21 22  1  0
 22 23  2  0
 23 24  1  0
 24 25  2  0
 18 26  2  0
  9  2  1  0
 26 14  1  0
 25 20  1  0
M  END
