
     RDKit          3D

 26 28  0  0  0  0  0  0  0  0999 V2000
   -4.9652    1.5733   -1.4715 C   0  0  0  0  0  0  0  0  0  0  0  0
   -4.2715    0.7359   -0.4238 C   0  0  0  0  0  0  0  0  0  0  0  0
   -3.8012   -0.6002   -0.9518 C   0  0  0  0  0  0  0  0  0  0  0  0
   -3.4397    1.4664    0.6239 C   0  0  2  0  0  0  0  0  0  0  0  0
   -2.1426    0.9497    1.1135 C   0  0  0  0  0  0  0  0  0  0  0  0
   -1.9301    0.7450    2.2993 O   0  0  0  0  0  0  0  0  0  0  0  0
   -1.2444    0.8155    0.1058 O   0  0  0  0  0  0  0  0  0  0  0  0
    0.0363    0.3537    0.5467 C   0  0  0  0  0  0  0  0  0  0  0  0
    1.0356    0.3696   -0.5856 C   0  0  0  0  0  0  0  0  0  0  0  0
    0.8978    1.2256   -1.6887 C   0  0  0  0  0  0  0  0  0  0  0  0
    1.8648    1.2514   -2.6969 C   0  0  0  0  0  0  0  0  0  0  0  0
    2.9915    0.4370   -2.6047 C   0  0  0  0  0  0  0  0  0  0  0  0
    3.1555   -0.3964   -1.5008 C   0  0  0  0  0  0  0  0  0  0  0  0
    4.2771   -1.1924   -1.4813 O   0  0  0  0  0  0  0  0  0  0  0  0
    5.0214   -1.2434   -0.3228 C   0  0  0  0  0  0  0  0  0  0  0  0
    5.2437   -0.1440    0.5100 C   0  0  0  0  0  0  0  0  0  0  0  0
    6.0385   -0.2830    1.6502 C   0  0  0  0  0  0  0  0  0  0  0  0
    6.6262   -1.5115    1.9470 C   0  0  0  0  0  0  0  0  0  0  0  0
    6.4275   -2.6016    1.1012 C   0  0  0  0  0  0  0  0  0  0  0  0
    5.6296   -2.4657   -0.0360 C   0  0  0  0  0  0  0  0  0  0  0  0
    2.1751   -0.4476   -0.5051 C   0  0  0  0  0  0  0  0  0  0  0  0
   -4.7756    0.8625    1.0067 C   0  0  2  0  0  0  0  0  0  0  0  0
   -4.9005   -0.3367    1.8532 C   0  0  0  0  0  0  0  0  0  0  0  0
   -5.9405   -1.1843    1.9068 C   0  0  0  0  0  0  0  0  0  0  0  0
   -7.3496   -0.9718    0.9286 Cl  0  0  0  0  0  0  0  0  0  0  0  0
   -5.9128   -2.5362    2.9840 Cl  0  0  0  0  0  0  0  0  0  0  0  0
  1  2  1  0
  2  3  1  0
  2  4  1  0
  4  5  1  1
  5  6  2  0
  5  7  1  0
  7  8  1  0
  8  9  1  0
  9 10  2  0
 10 11  1  0
 11 12  2  0
 12 13  1  0
 13 14  1  0
 14 15  1  0
 15 16  2  0
 16 17  1  0
 17 18  2  0
 18 19  1  0
 19 20  2  0
 13 21  2  0
  4 22  1  0
 22 23  1  1
 23 24  2  3
 24 25  1  0
 24 26  1  0
 22  2  1  0
 21  9  1  0
 20 15  1  0
M  END
