
     RDKit          3D

 11 12  0  0  0  0  0  0  0  0999 V2000
    2.7306    0.9288    0.0618 C   0  0  0  0  0  0  0  0  0  0  0  0
    1.5577    0.0036    0.0316 C   0  0  0  0  0  0  0  0  0  0  0  0
    1.5707   -1.2055   -0.5683 C   0  0  0  0  0  0  0  0  0  0  0  0
    0.3035   -2.0036   -0.5352 C   0  0  0  0  0  0  0  0  0  0  0  0
    0.2550   -3.0946   -1.0946 O   0  0  0  0  0  0  0  0  0  0  0  0
   -0.8501   -1.2700    0.2703 C   0  0  1  0  0  0  0  0  0  0  0  0
   -0.2856   -0.7118    1.6285 C   0  0  0  0  0  0  0  0  0  0  0  0
    0.2822    0.4455    0.7277 C   0  0  2  0  0  0  0  0  0  0  0  0
   -1.0448    0.2595   -0.1389 C   0  0  0  0  0  0  0  0  0  0  0  0
   -0.9753    0.5869   -1.6364 C   0  0  0  0  0  0  0  0  0  0  0  0
   -2.3018    0.9478    0.4267 C   0  0  0  0  0  0  0  0  0  0  0  0
  1  2  1  0
  2  3  2  0
  3  4  1  0
  4  5  2  0
  4  6  1  0
  6  7  1  1
  8  7  1  1
  8  9  1  0
  9 10  1  0
  9 11  1  0
  8  2  1  0
  9  6  1  0
M  END
