
     RDKit          3D

 22 24  0  0  0  0  0  0  0  0999 V2000
    1.7737   -1.8191    0.6402 C   0  0  0  0  0  0  0  0  0  0  0  0
    1.4353   -1.0831   -0.6727 C   0  0  0  0  0  0  0  0  0  0  0  0
    2.6604   -1.2283   -1.5980 C   0  0  0  0  0  0  0  0  0  0  0  0
    0.2104   -1.7916   -1.3215 C   0  0  0  0  0  0  0  0  0  0  0  0
   -0.8586   -0.7312   -1.5541 C   0  0  0  0  0  0  0  0  0  0  0  0
   -0.5871    0.3551   -0.5039 C   0  0  1  0  0  0  0  0  0  0  0  0
   -1.2769    0.0491    0.8424 C   0  0  0  0  0  0  0  0  0  0  0  0
   -2.7860    0.1565    0.7817 C   0  0  0  0  0  0  0  0  0  0  0  0
   -3.5853   -0.9909    0.8887 C   0  0  0  0  0  0  0  0  0  0  0  0
   -4.9775   -0.8924    0.8327 C   0  0  0  0  0  0  0  0  0  0  0  0
   -5.5777    0.3542    0.6730 C   0  0  0  0  0  0  0  0  0  0  0  0
   -7.2924    0.4751    0.6031 Cl  0  0  0  0  0  0  0  0  0  0  0  0
   -4.7979    1.5036    0.5708 C   0  0  0  0  0  0  0  0  0  0  0  0
   -3.4057    1.4053    0.6266 C   0  0  0  0  0  0  0  0  0  0  0  0
    0.9749    0.4114   -0.4824 C   0  0  2  0  0  0  0  0  0  0  0  0
    1.3312    1.1994   -1.6441 O   0  0  0  0  0  0  0  0  0  0  0  0
    1.5289    1.1796    0.7378 C   0  0  0  0  0  0  0  0  0  0  0  0
    2.9625    1.3899    0.7479 N   0  0  0  0  0  0  0  0  0  0  0  0
    3.7008    2.1964   -0.0633 C   0  0  0  0  0  0  0  0  0  0  0  0
    4.9538    2.1918    0.3311 N   0  0  0  0  0  0  0  0  0  0  0  0
    4.9256    1.3759    1.4244 C   0  0  0  0  0  0  0  0  0  0  0  0
    3.7265    0.8756    1.7333 N   0  0  0  0  0  0  0  0  0  0  0  0
  1  2  1  0
  2  3  1  0
  2  4  1  0
  4  5  1  0
  5  6  1  0
  6  7  1  1
  7  8  1  0
  8  9  2  0
  9 10  1  0
 10 11  2  0
 11 12  1  0
 11 13  1  0
 13 14  2  0
  6 15  1  0
 15 16  1  6
 15 17  1  0
 17 18  1  0
 18 19  1  0
 19 20  2  0
 20 21  1  0
 21 22  2  0
 15  2  1  0
 22 18  1  0
 14  8  1  0
M  END
