
     RDKit          3D

 15 16  0  0  0  0  0  0  0  0999 V2000
   -3.6147    0.5472    1.1536 C   0  0  0  0  0  0  0  0  0  0  0  0
   -2.5930   -0.0354    0.3172 N   0  0  0  0  0  0  0  0  0  0  0  0
   -2.7588   -0.2493   -1.0203 C   0  0  0  0  0  0  0  0  0  0  0  0
   -3.7780   -0.0729   -1.6696 O   0  0  0  0  0  0  0  0  0  0  0  0
   -1.4434   -0.6709   -1.6111 C   0  0  0  0  0  0  0  0  0  0  0  0
   -0.5444   -0.8860   -0.3957 C   0  0  1  0  0  0  0  0  0  0  0  0
    0.8996   -0.3791   -0.5651 C   0  0  1  0  0  0  0  0  0  0  0  0
    1.0263    1.1467   -0.5781 C   0  0  0  0  0  0  0  0  0  0  0  0
    2.7182    1.6889   -0.9889 S   0  0  0  0  0  0  0  0  0  0  0  0
    3.6882    0.5269    0.0292 C   0  0  0  0  0  0  0  0  0  0  0  0
    2.8754   -0.1405    1.1201 C   0  0  0  0  0  0  0  0  0  0  0  0
    1.7923   -0.9972    0.5091 C   0  0  0  0  0  0  0  0  0  0  0  0
    1.6570   -2.1740    0.8503 O   0  0  0  0  0  0  0  0  0  0  0  0
   -1.2994   -0.1998    0.7158 C   0  0  0  0  0  0  0  0  0  0  0  0
   -0.8098    0.1488    1.7788 O   0  0  0  0  0  0  0  0  0  0  0  0
  1  2  1  0
  2  3  1  0
  3  4  2  0
  3  5  1  0
  6  5  1  6
  6  7  1  0
  7  8  1  1
  8  9  1  0
  9 10  1  0
 10 11  1  0
 11 12  1  0
 12 13  2  0
  6 14  1  0
 14 15  2  0
 14  2  1  0
 12  7  1  0
M  END
