
     RDKit          3D

 19 20  0  0  0  0  0  0  0  0999 V2000
   -5.0177    0.9414    1.1341 C   0  0  0  0  0  0  0  0  0  0  0  0
   -4.4639    0.7365   -0.2649 C   0  0  0  0  0  0  0  0  0  0  0  0
   -3.4630   -0.2772   -0.2786 O   0  0  0  0  0  0  0  0  0  0  0  0
   -2.1678    0.1928    0.0980 C   0  0  2  0  0  0  0  0  0  0  0  0
   -1.6367    1.1445   -0.8622 O   0  0  0  0  0  0  0  0  0  0  0  0
   -0.2829    0.9447   -0.7959 C   0  0  0  0  0  0  0  0  0  0  0  0
    0.6541    1.8151   -1.3107 C   0  0  0  0  0  0  0  0  0  0  0  0
    2.0070    1.4841   -1.1768 C   0  0  0  0  0  0  0  0  0  0  0  0
    2.3897    0.2900   -0.5430 C   0  0  0  0  0  0  0  0  0  0  0  0
    3.6845   -0.1321   -0.3676 O   0  0  0  0  0  0  0  0  0  0  0  0
    4.9697    0.7869   -0.7662 S   0  0  0  0  0  6  0  0  0  0  0  0
    6.2157   -0.3496   -0.2138 C   0  0  0  0  0  0  0  0  0  0  0  0
    5.0658    0.8904   -2.2083 O   0  0  0  0  0  0  0  0  0  0  0  0
    5.0172    1.9549    0.0903 O   0  0  0  0  0  0  0  0  0  0  0  0
    1.4154   -0.5860   -0.0452 C   0  0  0  0  0  0  0  0  0  0  0  0
    0.0789   -0.2427   -0.1782 C   0  0  0  0  0  0  0  0  0  0  0  0
   -1.1596   -0.9904    0.1997 C   0  0  0  0  0  0  0  0  0  0  0  0
   -1.1296   -1.5712    1.6145 C   0  0  0  0  0  0  0  0  0  0  0  0
   -1.4323   -2.1053   -0.8215 C   0  0  0  0  0  0  0  0  0  0  0  0
  1  2  1  0
  2  3  1  0
  4  3  1  6
  4  5  1  0
  5  6  1  0
  6  7  2  0
  7  8  1  0
  8  9  2  0
  9 10  1  0
 10 11  1  0
 11 12  1  0
 11 13  2  0
 11 14  2  0
  9 15  1  0
 15 16  2  0
 16 17  1  0
 17 18  1  0
 17 19  1  0
 17  4  1  0
 16  6  1  0
M  END
