
     RDKit          3D

 12 13  0  0  0  0  0  0  0  0999 V2000
   -1.5790   -1.1965   -1.5230 O   0  0  0  0  0  0  0  0  0  0  0  0
   -1.1615   -1.0926   -0.1604 C   0  0  2  0  0  0  0  0  0  0  0  0
   -2.1269   -0.1930    0.6034 C   0  0  0  0  0  0  0  0  0  0  0  0
   -1.7860    1.2627    0.3324 C   0  0  0  0  0  0  0  0  0  0  0  0
   -0.4472    1.5433    0.8299 N   0  0  0  0  0  0  0  0  0  0  0  0
    0.5666    0.7074    0.3103 C   0  0  0  0  0  0  0  0  0  0  0  0
    1.9196    1.1003    0.3553 C   0  0  0  0  0  0  0  0  0  0  0  0
    2.4187    2.8201    0.9990 Br  0  0  0  0  0  0  0  0  0  0  0  0
    2.9368    0.2518   -0.0902 C   0  0  0  0  0  0  0  0  0  0  0  0
    2.6209   -1.0149   -0.5722 C   0  0  0  0  0  0  0  0  0  0  0  0
    1.2927   -1.4354   -0.5948 C   0  0  0  0  0  0  0  0  0  0  0  0
    0.2624   -0.5934   -0.1382 C   0  0  0  0  0  0  0  0  0  0  0  0
  2  1  1  6
  2  3  1  0
  3  4  1  0
  4  5  1  0
  5  6  1  0
  6  7  2  0
  7  8  1  0
  7  9  1  0
  9 10  2  0
 10 11  1  0
 11 12  2  0
 12  2  1  0
 12  6  1  0
M  END
