
     RDKit          3D

 12 12  0  0  0  0  0  0  0  0999 V2000
   -2.3883   -0.1014   -1.3267 C   0  0  0  0  0  0  0  0  0  0  0  0
   -1.8879    0.0471    0.1047 C   0  0  2  0  0  0  0  0  0  0  0  0
   -0.3902   -0.1534    0.1920 C   0  0  0  0  0  0  0  0  0  0  0  0
    0.4711    0.9540    0.1342 C   0  0  0  0  0  0  0  0  0  0  0  0
    1.8608    0.7677    0.1948 C   0  0  0  0  0  0  0  0  0  0  0  0
    2.4067   -0.5165    0.3074 C   0  0  0  0  0  0  0  0  0  0  0  0
    1.5545   -1.6183    0.3588 C   0  0  0  0  0  0  0  0  0  0  0  0
    0.1703   -1.4373    0.2990 C   0  0  0  0  0  0  0  0  0  0  0  0
    2.7523    1.9329    0.1357 N   0  0  0  0  0  4  0  0  0  0  0  0
    2.2322    3.0509    0.0068 O   0  0  0  0  0  0  0  0  0  0  0  0
    3.9728    1.7320    0.2150 O   0  0  0  0  0  1  0  0  0  0  0  0
   -2.5477   -0.9045    0.9357 O   0  0  0  0  0  0  0  0  0  0  0  0
  2  1  1  6
  2  3  1  0
  3  4  2  0
  4  5  1  0
  5  6  2  0
  6  7  1  0
  7  8  2  0
  5  9  1  0
  9 10  2  0
  9 11  1  0
  2 12  1  0
  8  3  1  0
M  CHG  2   9   1  11  -1
M  END
