
     RDKit          3D

 12 13  0  0  0  0  0  0  0  0999 V2000
   -3.1975    1.2952    0.5240 C   0  0  0  0  0  0  0  0  0  0  0  0
   -1.7392    1.0690    0.8942 C   0  0  0  0  0  0  0  0  0  0  0  0
   -1.1033   -0.1907    0.2823 C   0  0  1  0  0  0  0  0  0  0  0  0
   -1.7695   -1.4704    0.7995 C   0  0  0  0  0  0  0  0  0  0  0  0
   -1.0684   -0.1580   -1.2498 C   0  0  0  0  0  0  0  0  0  0  0  0
    0.2687   -0.7884   -1.5705 C   0  0  0  0  0  0  0  0  0  0  0  0
    1.1223   -0.2610   -0.4364 C   0  0  1  0  0  0  0  0  0  0  0  0
    2.3800   -1.0573   -0.1518 C   0  0  0  0  0  0  0  0  0  0  0  0
    3.2152   -0.0363    0.5841 C   0  0  0  0  0  0  0  0  0  0  0  0
    2.8563    1.2514   -0.1298 C   0  0  0  0  0  0  0  0  0  0  0  0
    1.5617    1.0736   -0.7212 O   0  0  0  0  0  0  0  0  0  0  0  0
    0.2749   -0.2431    0.7195 O   0  0  0  0  0  0  0  0  0  0  0  0
  1  2  1  0
  2  3  1  0
  3  4  1  6
  3  5  1  0
  5  6  1  0
  7  6  1  6
  7  8  1  0
  8  9  1  0
  9 10  1  0
 10 11  1  0
  7 12  1  0
 12  3  1  0
 11  7  1  0
M  END
