
     RDKit          3D

 18 18  0  0  0  0  0  0  0  0999 V2000
   -3.0524    0.6091    2.7073 C   0  0  0  0  0  0  0  0  0  0  0  0
   -2.6847    1.5493    1.5777 C   0  0  0  0  0  0  0  0  0  0  0  0
   -1.7619    0.8901    0.7263 O   0  0  0  0  0  0  0  0  0  0  0  0
   -1.4464    1.5428   -0.7221 P   0  0  0  0  0  5  0  0  0  0  0  0
   -0.8429    3.3865   -0.7422 S   0  0  0  0  0  0  0  0  0  0  0  0
   -2.8473    1.3025   -1.5011 O   0  0  0  0  0  0  0  0  0  0  0  0
   -3.1985    0.0398   -2.0387 C   0  0  0  0  0  0  0  0  0  0  0  0
   -3.6220   -0.9417   -0.9652 C   0  0  0  0  0  0  0  0  0  0  0  0
   -0.4635    0.4461   -1.4057 O   0  0  0  0  0  0  0  0  0  0  0  0
    0.7769    0.2031   -0.8907 C   0  0  0  0  0  0  0  0  0  0  0  0
    1.8866    0.7686   -1.5117 C   0  0  0  0  0  0  0  0  0  0  0  0
    3.1641    0.5127   -1.0090 C   0  0  0  0  0  0  0  0  0  0  0  0
    3.3299   -0.3267    0.0998 C   0  0  0  0  0  0  0  0  0  0  0  0
    4.9900   -0.6434    0.7438 S   0  0  0  0  0  4  0  0  0  0  0  0
    5.5359   -1.7592   -0.5745 C   0  0  0  0  0  0  0  0  0  0  0  0
    4.8021   -1.4752    1.9792 O   0  0  0  0  0  0  0  0  0  0  0  0
    2.2046   -0.8976    0.7060 C   0  0  0  0  0  0  0  0  0  0  0  0
    0.9269   -0.6398    0.2058 C   0  0  0  0  0  0  0  0  0  0  0  0
  1  2  1  0
  2  3  1  0
  3  4  1  0
  4  5  2  0
  4  6  1  0
  6  7  1  0
  7  8  1  0
  4  9  1  0
  9 10  1  0
 10 11  2  0
 11 12  1  0
 12 13  2  0
 13 14  1  0
 14 15  1  6
 14 16  2  0
 13 17  1  0
 17 18  2  0
 18 10  1  0
M  END
