
     RDKit          3D

 12 13  0  0  0  0  0  0  0  0999 V2000
   -1.2778   -1.4065   -1.6141 O   0  0  0  0  0  0  0  0  0  0  0  0
   -0.8979   -1.3212   -0.2425 C   0  0  2  0  0  0  0  0  0  0  0  0
   -2.0201   -0.6619    0.5634 C   0  0  0  0  0  0  0  0  0  0  0  0
   -2.0684    0.8391    0.2952 C   0  0  0  0  0  0  0  0  0  0  0  0
   -0.7659    1.5005    0.7405 C   0  0  0  0  0  0  0  0  0  0  0  0
    0.4671    0.7726    0.2627 C   0  0  0  0  0  0  0  0  0  0  0  0
    1.7050    1.4338    0.3057 C   0  0  0  0  0  0  0  0  0  0  0  0
    2.8709    0.7893   -0.1087 C   0  0  0  0  0  0  0  0  0  0  0  0
    2.8059   -0.5228   -0.5664 C   0  0  0  0  0  0  0  0  0  0  0  0
    4.3822   -1.3961   -1.1385 Br  0  0  0  0  0  0  0  0  0  0  0  0
    1.5877   -1.1983   -0.6049 C   0  0  0  0  0  0  0  0  0  0  0  0
    0.4079   -0.5642   -0.1785 C   0  0  0  0  0  0  0  0  0  0  0  0
  2  1  1  6
  2  3  1  0
  3  4  1  0
  4  5  1  0
  5  6  1  0
  6  7  2  0
  7  8  1  0
  8  9  2  0
  9 10  1  0
  9 11  1  0
 11 12  2  0
 12  2  1  0
 12  6  1  0
M  END
