
     RDKit          3D

 19 20  0  0  0  0  0  0  0  0999 V2000
   -0.2089   -2.4916   -0.4594 O   0  0  0  0  0  0  0  0  0  0  0  0
   -0.9457   -1.5363   -0.2659 C   0  0  0  0  0  0  0  0  0  0  0  0
   -2.4635   -1.5941   -0.3193 C   0  0  1  0  0  0  0  0  0  0  0  0
   -3.0916   -3.0526    0.4647 Cl  0  0  0  0  0  0  0  0  0  0  0  0
   -2.8773   -0.3353    0.4341 C   0  0  2  0  0  0  0  0  0  0  0  0
   -4.2924    0.1564    0.1625 C   0  0  0  0  0  0  0  0  0  0  0  0
   -4.5965    0.5566   -1.5435 Cl  0  0  0  0  0  0  0  0  0  0  0  0
   -1.7708    0.6407    0.0648 C   0  0  0  0  0  0  0  0  0  0  0  0
   -0.5894   -0.1904   -0.0305 N   0  0  0  0  0  0  0  0  0  0  0  0
    0.7290    0.3442   -0.0117 C   0  0  0  0  0  0  0  0  0  0  0  0
    0.9369    1.7326   -0.0032 C   0  0  0  0  0  0  0  0  0  0  0  0
    2.2253    2.2763    0.0134 C   0  0  0  0  0  0  0  0  0  0  0  0
    3.3366    1.4402    0.0260 C   0  0  0  0  0  0  0  0  0  0  0  0
    3.1673    0.0516    0.0276 C   0  0  0  0  0  0  0  0  0  0  0  0
    4.3572   -0.8768    0.0299 C   0  0  0  0  0  0  0  0  0  0  0  0
    4.5709   -1.4530   -1.1845 F   0  0  0  0  0  0  0  0  0  0  0  0
    5.5251   -0.2520    0.3545 F   0  0  0  0  0  0  0  0  0  0  0  0
    4.2297   -1.9007    0.9184 F   0  0  0  0  0  0  0  0  0  0  0  0
    1.8625   -0.4802    0.0035 C   0  0  0  0  0  0  0  0  0  0  0  0
  1  2  2  0
  2  3  1  0
  3  4  1  1
  3  5  1  0
  5  6  1  6
  6  7  1  0
  5  8  1  0
  8  9  1  0
  9 10  1  0
 10 11  2  0
 11 12  1  0
 12 13  2  0
 13 14  1  0
 14 15  1  0
 15 16  1  0
 15 17  1  0
 15 18  1  0
 14 19  2  0
  9  2  1  0
 19 10  1  0
M  END
