
     RDKit          3D

 20 20  0  0  0  0  0  0  0  0999 V2000
    3.0222   -2.4259    0.2579 C   0  0  0  0  0  0  0  0  0  0  0  0
    3.5911   -1.2018   -0.4339 C   0  0  0  0  0  0  0  0  0  0  0  0
    2.5572   -0.2315   -0.6650 O   0  0  0  0  0  0  0  0  0  0  0  0
    2.2917    0.6224    0.3608 C   0  0  0  0  0  0  0  0  0  0  0  0
    2.8978    0.6316    1.4279 O   0  0  0  0  0  0  0  0  0  0  0  0
    1.1489    1.5876    0.0418 C   0  0  1  0  0  0  0  0  0  0  0  0
    1.5566    2.8720    0.3513 F   0  0  0  0  0  0  0  0  0  0  0  0
    0.7419    1.5698   -1.4342 C   0  0  0  0  0  0  0  0  0  0  0  0
    1.6958    2.2187   -2.4077 C   0  0  0  0  0  0  0  0  0  0  0  0
   -0.3341    1.1124   -1.8253 O   0  0  0  0  0  0  0  0  0  0  0  0
   -0.0177    1.2974    0.9933 C   0  0  1  0  0  0  0  0  0  0  0  0
   -1.1590    2.3057    0.9218 C   0  0  0  0  0  0  0  0  0  0  0  0
   -2.3928    1.4602    0.8075 C   0  0  0  0  0  0  0  0  0  0  0  0
   -3.5242    1.9195    0.7555 O   0  0  0  0  0  0  0  0  0  0  0  0
   -2.0369    0.1407    0.7607 N   0  0  0  0  0  0  0  0  0  0  0  0
   -3.0117   -0.9216    0.5076 C   0  0  0  0  0  0  0  0  0  0  0  0
   -2.9701   -1.3754   -0.9520 C   0  0  0  0  0  0  0  0  0  0  0  0
   -2.8401   -2.1069    1.4577 C   0  0  0  0  0  0  0  0  0  0  0  0
   -0.6811   -0.0239    0.7265 C   0  0  0  0  0  0  0  0  0  0  0  0
   -0.0648   -1.0623    0.5432 O   0  0  0  0  0  0  0  0  0  0  0  0
  1  2  1  0
  2  3  1  0
  3  4  1  0
  4  5  2  0
  4  6  1  0
  6  7  1  1
  6  8  1  0
  8  9  1  0
  8 10  2  0
  6 11  1  0
 11 12  1  6
 12 13  1  0
 13 14  2  0
 13 15  1  0
 15 16  1  0
 16 17  1  0
 16 18  1  0
 15 19  1  0
 19 20  2  0
 19 11  1  0
M  END
