
     RDKit          3D

 16 17  0  0  0  0  0  0  0  0999 V2000
    3.5102   -0.6899   -0.8284 C   0  0  0  0  0  0  0  0  0  0  0  0
    3.3028   -0.2771    0.6207 C   0  0  0  0  0  0  0  0  0  0  0  0
    1.9210   -0.4368    1.0294 N   0  0  0  0  0  0  0  0  0  0  0  0
    1.4094   -1.6148    1.4910 C   0  0  0  0  0  0  0  0  0  0  0  0
    2.0302   -2.6409    1.7261 O   0  0  0  0  0  0  0  0  0  0  0  0
   -0.0741   -1.4690    1.6701 C   0  0  0  0  0  0  0  0  0  0  0  0
   -0.3555    0.0016    1.3579 C   0  0  2  0  0  0  0  0  0  0  0  0
   -1.5380    0.2325    0.3960 C   0  0  1  0  0  0  0  0  0  0  0  0
   -2.0183    1.6853    0.4640 C   0  0  0  0  0  0  0  0  0  0  0  0
   -3.6007    1.9239   -0.4138 S   0  0  0  0  0  0  0  0  0  0  0  0
   -3.3374    0.8366   -1.8520 C   0  0  0  0  0  0  0  0  0  0  0  0
   -1.8706    0.6241   -2.1659 C   0  0  0  0  0  0  0  0  0  0  0  0
   -1.1857   -0.1270   -1.0473 C   0  0  0  0  0  0  0  0  0  0  0  0
   -0.3712   -1.0171   -1.3003 O   0  0  0  0  0  0  0  0  0  0  0  0
    0.9618    0.5086    0.8211 C   0  0  0  0  0  0  0  0  0  0  0  0
    1.1110    1.6085    0.3085 O   0  0  0  0  0  0  0  0  0  0  0  0
  1  2  1  0
  2  3  1  0
  3  4  1  0
  4  5  2  0
  4  6  1  0
  7  6  1  6
  7  8  1  0
  8  9  1  6
  9 10  1  0
 10 11  1  0
 11 12  1  0
 12 13  1  0
 13 14  2  0
  7 15  1  0
 15 16  2  0
 15  3  1  0
 13  8  1  0
M  END
