
     RDKit          3D

 21 21  0  0  0  0  0  0  0  0999 V2000
   -1.7923    1.3247    3.1297 C   0  0  0  0  0  0  0  0  0  0  0  0
   -1.1515    1.3740    1.7575 C   0  0  0  0  0  0  0  0  0  0  0  0
   -0.8975    0.0443    1.3339 O   0  0  0  0  0  0  0  0  0  0  0  0
   -0.3589   -0.2353   -0.1708 P   0  0  1  0  0  5  0  0  0  0  0  0
    0.1465   -2.0928   -0.4520 S   0  0  0  0  0  0  0  0  0  0  0  0
   -1.4690    0.4445   -1.1770 N   0  0  0  0  0  0  0  0  0  0  0  0
   -2.7979   -0.0897   -1.4804 C   0  0  2  0  0  0  0  0  0  0  0  0
   -3.5406   -0.5723   -0.2347 C   0  0  0  0  0  0  0  0  0  0  0  0
   -2.7425   -1.1486   -2.5975 C   0  0  0  0  0  0  0  0  0  0  0  0
   -4.1146   -1.5160   -3.1498 C   0  0  0  0  0  0  0  0  0  0  0  0
    0.8663    0.8341   -0.2545 O   0  0  0  0  0  0  0  0  0  0  0  0
    2.1610    0.5161    0.0423 C   0  0  0  0  0  0  0  0  0  0  0  0
    2.5030    0.1612    1.3494 C   0  0  0  0  0  0  0  0  0  0  0  0
    3.8353   -0.1248    1.6811 C   0  0  0  0  0  0  0  0  0  0  0  0
    4.1939   -0.5545    3.0745 C   0  0  0  0  0  0  0  0  0  0  0  0
    4.8220   -0.0627    0.6875 C   0  0  0  0  0  0  0  0  0  0  0  0
    4.4902    0.3035   -0.6185 C   0  0  0  0  0  0  0  0  0  0  0  0
    3.1572    0.5950   -0.9365 C   0  0  0  0  0  0  0  0  0  0  0  0
    2.8332    0.9750   -2.3116 N   0  0  0  0  0  4  0  0  0  0  0  0
    1.7078    0.6923   -2.7515 O   0  0  0  0  0  0  0  0  0  0  0  0
    3.7147    1.5558   -2.9620 O   0  0  0  0  0  1  0  0  0  0  0  0
  1  2  1  0
  2  3  1  0
  3  4  1  0
  4  5  2  0
  4  6  1  6
  6  7  1  0
  7  8  1  1
  7  9  1  0
  9 10  1  0
  4 11  1  0
 11 12  1  0
 12 13  2  0
 13 14  1  0
 14 15  1  0
 14 16  2  0
 16 17  1  0
 17 18  2  0
 18 19  1  0
 19 20  2  0
 19 21  1  0
 18 12  1  0
M  CHG  2  19   1  21  -1
M  END
