
     RDKit          3D

 26 28  0  0  0  0  0  0  0  0999 V2000
   -5.3334    1.1256   -0.8422 C   0  0  0  0  0  0  0  0  0  0  0  0
   -4.8012   -0.2278   -0.4337 C   0  0  0  0  0  0  0  0  0  0  0  0
   -4.7117   -1.2003   -1.5861 C   0  0  0  0  0  0  0  0  0  0  0  0
   -5.1072   -0.8119    0.9381 C   0  0  2  0  0  0  0  0  0  0  0  0
   -6.0053   -0.1096    1.8690 C   0  0  0  0  0  0  0  0  0  0  0  0
   -5.8616    0.0361    3.1954 C   0  0  0  0  0  0  0  0  0  0  0  0
   -7.0523    0.8916    4.1104 Cl  0  0  0  0  0  0  0  0  0  0  0  0
   -4.5085   -0.6067    4.0523 Cl  0  0  0  0  0  0  0  0  0  0  0  0
   -3.7324   -0.2418    0.6510 C   0  0  1  0  0  0  0  0  0  0  0  0
   -2.5505   -1.1333    0.5568 C   0  0  0  0  0  0  0  0  0  0  0  0
   -2.6092   -2.3401    0.7403 O   0  0  0  0  0  0  0  0  0  0  0  0
   -1.4409   -0.4294    0.2214 O   0  0  0  0  0  0  0  0  0  0  0  0
   -0.2687   -1.2385    0.0982 C   0  0  0  0  0  0  0  0  0  0  0  0
    0.8914   -0.3483   -0.2712 C   0  0  0  0  0  0  0  0  0  0  0  0
    0.8373    0.4508   -1.4237 C   0  0  0  0  0  0  0  0  0  0  0  0
    1.9087    1.2776   -1.7680 C   0  0  0  0  0  0  0  0  0  0  0  0
    3.0526    1.3058   -0.9717 C   0  0  0  0  0  0  0  0  0  0  0  0
    3.1279    0.4926    0.1609 C   0  0  0  0  0  0  0  0  0  0  0  0
    4.2122    0.4957    1.0094 O   0  0  0  0  0  0  0  0  0  0  0  0
    5.4616    0.4288    0.4359 C   0  0  0  0  0  0  0  0  0  0  0  0
    6.4242    1.3240    0.9034 C   0  0  0  0  0  0  0  0  0  0  0  0
    7.7190    1.2846    0.3854 C   0  0  0  0  0  0  0  0  0  0  0  0
    8.0528    0.3405   -0.5870 C   0  0  0  0  0  0  0  0  0  0  0  0
    7.0952   -0.5696   -1.0373 C   0  0  0  0  0  0  0  0  0  0  0  0
    5.7993   -0.5325   -0.5205 C   0  0  0  0  0  0  0  0  0  0  0  0
    2.0479   -0.3165    0.5205 C   0  0  0  0  0  0  0  0  0  0  0  0
  1  2  1  0
  2  3  1  0
  2  4  1  0
  4  5  1  1
  5  6  2  3
  6  7  1  0
  6  8  1  0
  4  9  1  0
  9 10  1  6
 10 11  2  0
 10 12  1  0
 12 13  1  0
 13 14  1  0
 14 15  2  0
 15 16  1  0
 16 17  2  0
 17 18  1  0
 18 19  1  0
 19 20  1  0
 20 21  2  0
 21 22  1  0
 22 23  2  0
 23 24  1  0
 24 25  2  0
 18 26  2  0
  9  2  1  0
 26 14  1  0
 25 20  1  0
M  END
