
     RDKit          3D

 10 11  0  0  0  0  0  0  0  0999 V2000
    2.4087   -0.3226    1.5978 C   0  0  0  0  0  0  0  0  0  0  0  0
    1.3767    0.2327    0.6754 C   0  0  0  0  0  0  0  0  0  0  0  0
    1.0595    1.5380    0.5552 C   0  0  0  0  0  0  0  0  0  0  0  0
   -0.0254    1.9880   -0.4028 C   0  0  0  0  0  0  0  0  0  0  0  0
   -0.6058    0.7558   -1.1296 C   0  0  1  0  0  0  0  0  0  0  0  0
    0.5588   -0.1315   -1.6824 C   0  0  0  0  0  0  0  0  0  0  0  0
    0.6126   -0.7102   -0.2210 C   0  0  2  0  0  0  0  0  0  0  0  0
   -0.9659   -0.4842   -0.1980 C   0  0  0  0  0  0  0  0  0  0  0  0
   -1.7877   -1.5969   -0.8790 C   0  0  0  0  0  0  0  0  0  0  0  0
   -1.6330   -0.1828    1.1505 C   0  0  0  0  0  0  0  0  0  0  0  0
  1  2  1  0
  2  3  2  0
  3  4  1  0
  5  4  1  1
  5  6  1  0
  7  6  1  6
  7  8  1  0
  8  9  1  0
  8 10  1  0
  7  2  1  0
  8  5  1  0
M  END
