
     RDKit          3D

 24 26  0  0  0  0  0  0  0  0999 V2000
   -1.3959    2.0442   -1.0917 C   0  0  0  0  0  0  0  0  0  0  0  0
   -2.8785    1.9071   -0.8741 C   0  0  0  0  0  0  0  0  0  0  0  0
   -3.6741    3.1486   -1.1759 C   0  0  0  0  0  0  0  0  0  0  0  0
   -3.4802    0.7815   -0.4383 C   0  0  0  0  0  0  0  0  0  0  0  0
   -2.8460   -0.5000   -0.0953 C   0  0  2  0  0  0  0  0  0  0  0  0
   -2.3816   -1.4188   -1.2079 C   0  0  1  0  0  0  0  0  0  0  0  0
   -1.1032   -2.1611   -1.1218 C   0  0  0  0  0  0  0  0  0  0  0  0
   -0.9917   -3.3073   -1.5317 O   0  0  0  0  0  0  0  0  0  0  0  0
   -0.1131   -1.4105   -0.5804 O   0  0  0  0  0  0  0  0  0  0  0  0
    1.1300   -2.1028   -0.5201 C   0  0  0  0  0  0  0  0  0  0  0  0
    2.1064   -1.1998    0.0227 N   0  0  0  0  0  0  0  0  0  0  0  0
    2.8347   -0.3253   -0.7171 C   0  0  0  0  0  0  0  0  0  0  0  0
    2.8408   -0.1579   -1.9223 O   0  0  0  0  0  0  0  0  0  0  0  0
    3.6577    0.4319    0.2282 C   0  0  0  0  0  0  0  0  0  0  0  0
    3.3794   -0.0047    1.4593 C   0  0  0  0  0  0  0  0  0  0  0  0
    3.9896    0.5124    2.7060 C   0  0  0  0  0  0  0  0  0  0  0  0
    4.7520    1.8231    2.4369 C   0  0  0  0  0  0  0  0  0  0  0  0
    5.5420    1.7855    1.1177 C   0  0  0  0  0  0  0  0  0  0  0  0
    4.6465    1.4860   -0.0983 C   0  0  0  0  0  0  0  0  0  0  0  0
    2.3584   -1.0500    1.3485 C   0  0  0  0  0  0  0  0  0  0  0  0
    1.8660   -1.6351    2.2956 O   0  0  0  0  0  0  0  0  0  0  0  0
   -3.5711   -1.8164   -0.3432 C   0  0  0  0  0  0  0  0  0  0  0  0
   -3.4076   -2.8893    0.7082 C   0  0  0  0  0  0  0  0  0  0  0  0
   -4.9180   -1.8566   -1.0256 C   0  0  0  0  0  0  0  0  0  0  0  0
  1  2  1  0
  2  3  1  0
  2  4  2  3
  5  4  1  6
  5  6  1  0
  6  7  1  1
  7  8  2  0
  7  9  1  0
  9 10  1  0
 10 11  1  0
 11 12  1  0
 12 13  2  0
 12 14  1  0
 14 15  2  0
 15 16  1  0
 16 17  1  0
 17 18  1  0
 18 19  1  0
 15 20  1  0
 20 21  2  0
  6 22  1  0
 22 23  1  0
 22 24  1  0
 22  5  1  0
 20 11  1  0
 19 14  1  0
M  END
