
     RDKit          3D

 24 26  0  0  0  0  0  0  0  0999 V2000
    5.6121    0.0152   -0.5981 C   0  0  0  0  0  0  0  0  0  0  0  0
    4.9569   -0.5741    0.6197 C   0  0  0  0  0  0  0  0  0  0  0  0
    5.4799   -1.9239    1.0287 C   0  0  0  0  0  0  0  0  0  0  0  0
    3.9772    0.0352    1.3166 C   0  0  0  0  0  0  0  0  0  0  0  0
    3.3758    1.3475    1.0411 C   0  0  2  0  0  0  0  0  0  0  0  0
    1.9428    1.6706    1.4092 C   0  0  2  0  0  0  0  0  0  0  0  0
    1.0454    0.7204    2.1036 C   0  0  0  0  0  0  0  0  0  0  0  0
    1.3402    0.1928    3.1657 O   0  0  0  0  0  0  0  0  0  0  0  0
   -0.1343    0.5797    1.4493 O   0  0  0  0  0  0  0  0  0  0  0  0
   -1.0123   -0.3363    2.0962 C   0  0  0  0  0  0  0  0  0  0  0  0
   -2.1927   -0.4542    1.2868 N   0  0  0  0  0  0  0  0  0  0  0  0
   -2.3297   -1.3286    0.2578 C   0  0  0  0  0  0  0  0  0  0  0  0
   -1.5454   -2.1655   -0.1476 O   0  0  0  0  0  0  0  0  0  0  0  0
   -3.6554   -1.0867   -0.3157 C   0  0  0  0  0  0  0  0  0  0  0  0
   -4.2249   -0.0914    0.3673 C   0  0  0  0  0  0  0  0  0  0  0  0
   -5.5777    0.4535    0.1094 C   0  0  0  0  0  0  0  0  0  0  0  0
   -6.3692   -0.4790   -0.8251 C   0  0  0  0  0  0  0  0  0  0  0  0
   -5.5066   -1.0292   -1.9729 C   0  0  0  0  0  0  0  0  0  0  0  0
   -4.2675   -1.7899   -1.4672 C   0  0  0  0  0  0  0  0  0  0  0  0
   -3.2908    0.3330    1.4126 C   0  0  0  0  0  0  0  0  0  0  0  0
   -3.5097    1.2212    2.2150 O   0  0  0  0  0  0  0  0  0  0  0  0
    2.3335    1.5051   -0.0544 C   0  0  0  0  0  0  0  0  0  0  0  0
    1.8573    0.2957   -0.8291 C   0  0  0  0  0  0  0  0  0  0  0  0
    2.4007    2.7558   -0.8965 C   0  0  0  0  0  0  0  0  0  0  0  0
  1  2  1  0
  2  3  1  0
  2  4  2  3
  5  4  1  1
  5  6  1  0
  6  7  1  1
  7  8  2  0
  7  9  1  0
  9 10  1  0
 10 11  1  0
 11 12  1  0
 12 13  2  0
 12 14  1  0
 14 15  2  0
 15 16  1  0
 16 17  1  0
 17 18  1  0
 18 19  1  0
 15 20  1  0
 20 21  2  0
  6 22  1  0
 22 23  1  0
 22 24  1  0
 22  5  1  0
 20 11  1  0
 19 14  1  0
M  END
