
     RDKit          3D

 15 15  0  0  0  0  0  0  0  0999 V2000
    2.8252   -1.3933    0.2244 C   0  0  0  0  0  0  0  0  0  0  0  0
    2.0272   -0.5560    1.1889 C   0  0  0  0  0  0  0  0  0  0  0  0
    1.5013    0.7861    0.7074 C   0  0  0  0  0  0  0  0  0  0  0  0
    0.6148    0.6918   -0.5496 C   0  0  1  0  0  0  0  0  0  0  0  0
   -0.6135   -0.1964   -0.4119 C   0  0  0  0  0  0  0  0  0  0  0  0
   -1.0446   -0.9443   -1.5217 C   0  0  0  0  0  0  0  0  0  0  0  0
   -2.1727   -1.7626   -1.4398 C   0  0  0  0  0  0  0  0  0  0  0  0
   -2.8897   -1.8430   -0.2500 C   0  0  0  0  0  0  0  0  0  0  0  0
   -2.4800   -1.1037    0.8560 C   0  0  0  0  0  0  0  0  0  0  0  0
   -1.3519   -0.2837    0.7769 C   0  0  0  0  0  0  0  0  0  0  0  0
    0.2675    2.0641   -1.1506 C   0  0  0  0  0  0  0  0  0  0  0  0
   -0.5202    2.9096   -0.1962 N   0  0  0  0  0  4  0  0  0  0  0  0
   -1.7460    2.9511   -0.3487 O   0  0  0  0  0  1  0  0  0  0  0  0
    0.1223    3.5354    0.6565 O   0  0  0  0  0  0  0  0  0  0  0  0
    1.8315   -0.9338    2.3445 O   0  0  0  0  0  0  0  0  0  0  0  0
  1  2  1  0
  2  3  1  0
  4  3  1  1
  4  5  1  0
  5  6  2  0
  6  7  1  0
  7  8  2  0
  8  9  1  0
  9 10  2  0
  4 11  1  0
 11 12  1  0
 12 13  1  0
 12 14  2  0
  2 15  2  0
 10  5  1  0
M  CHG  2  12   1  13  -1
M  END
