
     RDKit          3D

 19 20  0  0  0  0  0  0  0  0999 V2000
   -0.9111   -0.0729   -1.8867 O   0  0  0  0  0  0  0  0  0  0  0  0
   -1.9146   -0.6782   -1.5215 C   0  0  0  0  0  0  0  0  0  0  0  0
   -2.7159   -0.2991   -0.2813 C   0  0  0  0  0  0  0  0  0  0  0  0
   -1.8043    0.2999    0.8185 C   0  0  2  0  0  0  0  0  0  0  0  0
   -1.2964    1.7262    0.5877 C   0  0  0  0  0  0  0  0  0  0  0  0
    0.0895    1.7145    1.1627 C   0  0  0  0  0  0  0  0  0  0  0  0
    0.7436    2.7181    1.4043 O   0  0  0  0  0  0  0  0  0  0  0  0
    0.4730    0.4198    1.3468 N   0  0  0  0  0  0  0  0  0  0  0  0
    1.8092    0.0332    1.7432 C   0  0  0  0  0  0  0  0  0  0  0  0
    2.7273   -0.1240    0.5546 C   0  0  0  0  0  0  0  0  0  0  0  0
    3.4756    0.9649    0.0846 C   0  0  0  0  0  0  0  0  0  0  0  0
    4.3097    0.8240   -1.0254 C   0  0  0  0  0  0  0  0  0  0  0  0
    4.3982   -0.4027   -1.6808 C   0  0  0  0  0  0  0  0  0  0  0  0
    3.6488   -1.4881   -1.2309 C   0  0  0  0  0  0  0  0  0  0  0  0
    2.8143   -1.3497   -0.1209 C   0  0  0  0  0  0  0  0  0  0  0  0
   -0.5227   -0.4707    1.0719 C   0  0  0  0  0  0  0  0  0  0  0  0
   -0.4393   -1.6899    1.1060 O   0  0  0  0  0  0  0  0  0  0  0  0
   -3.4192   -1.5703    0.2330 C   0  0  0  0  0  0  0  0  0  0  0  0
   -3.8018    0.6978   -0.7180 C   0  0  0  0  0  0  0  0  0  0  0  0
  1  2  2  0
  2  3  1  0
  4  3  1  6
  4  5  1  0
  5  6  1  0
  6  7  2  0
  6  8  1  0
  8  9  1  0
  9 10  1  0
 10 11  2  0
 11 12  1  0
 12 13  2  0
 13 14  1  0
 14 15  2  0
  8 16  1  0
 16 17  2  0
  3 18  1  0
  3 19  1  0
 16  4  1  0
 15 10  1  0
M  END
