
     RDKit          3D

 21 22  0  0  0  0  0  0  0  0999 V2000
   -3.5943   -2.3252   -1.1587 C   0  0  0  0  0  0  0  0  0  0  0  0
   -2.9031   -1.0625   -0.6875 C   0  0  0  0  0  0  0  0  0  0  0  0
   -1.6324   -1.4052   -0.1532 O   0  0  0  0  0  0  0  0  0  0  0  0
   -1.2465   -0.9388    1.3606 P   0  0  1  0  0  5  0  0  0  0  0  0
   -2.4287   -1.7276    2.7054 S   0  0  0  0  0  0  0  0  0  0  0  0
    0.2627   -1.5470    1.5019 O   0  0  0  0  0  0  0  0  0  0  0  0
    1.2807   -1.2160    0.6555 C   0  0  0  0  0  0  0  0  0  0  0  0
    2.2657   -0.3404    1.1103 C   0  0  0  0  0  0  0  0  0  0  0  0
    3.3288    0.0025    0.2728 C   0  0  0  0  0  0  0  0  0  0  0  0
    3.4004   -0.5537   -1.0120 C   0  0  0  0  0  0  0  0  0  0  0  0
    4.5130   -0.1934   -1.8990 N   0  0  0  0  0  4  0  0  0  0  0  0
    4.4594   -0.5799   -3.0753 O   0  0  0  0  0  0  0  0  0  0  0  0
    5.4362    0.4807   -1.4204 O   0  0  0  0  0  1  0  0  0  0  0  0
    2.4212   -1.4536   -1.4570 C   0  0  0  0  0  0  0  0  0  0  0  0
    1.3623   -1.7904   -0.6113 C   0  0  0  0  0  0  0  0  0  0  0  0
   -1.0209    0.8405    1.2744 C   0  0  0  0  0  0  0  0  0  0  0  0
   -1.1317    1.6237    2.4348 C   0  0  0  0  0  0  0  0  0  0  0  0
   -0.9464    3.0066    2.3846 C   0  0  0  0  0  0  0  0  0  0  0  0
   -0.6424    3.6266    1.1751 C   0  0  0  0  0  0  0  0  0  0  0  0
   -0.5214    2.8661    0.0152 C   0  0  0  0  0  0  0  0  0  0  0  0
   -0.7091    1.4838    0.0645 C   0  0  0  0  0  0  0  0  0  0  0  0
  1  2  1  0
  2  3  1  0
  4  3  1  6
  4  5  2  0
  4  6  1  0
  6  7  1  0
  7  8  2  0
  8  9  1  0
  9 10  2  0
 10 11  1  0
 11 12  2  0
 11 13  1  0
 10 14  1  0
 14 15  2  0
  4 16  1  0
 16 17  2  0
 17 18  1  0
 18 19  2  0
 19 20  1  0
 20 21  2  0
 15  7  1  0
 21 16  1  0
M  CHG  2  11   1  13  -1
M  END
