
     RDKit          3D

 11 12  0  0  0  0  0  0  0  0999 V2000
   -1.1919    0.4346    1.4806 C   0  0  0  0  0  0  0  0  0  0  0  0
   -0.9476   -0.2959    0.1545 C   0  0  0  0  0  0  0  0  0  0  0  0
   -0.5707    0.5951   -1.1048 C   0  0  2  0  0  0  0  0  0  0  0  0
    0.2400   -0.6401   -1.6105 C   0  0  0  0  0  0  0  0  0  0  0  0
    0.4878   -0.9391   -0.0895 C   0  0  1  0  0  0  0  0  0  0  0  0
    1.6158   -0.0917    0.4140 C   0  0  0  0  0  0  0  0  0  0  0  0
    2.5834   -0.5942    1.1897 C   0  0  0  0  0  0  0  0  0  0  0  0
    1.5981    1.3547    0.0008 C   0  0  0  0  0  0  0  0  0  0  0  0
    2.4862    2.1398    0.3149 O   0  0  0  0  0  0  0  0  0  0  0  0
    0.3872    1.7711   -0.8282 C   0  0  0  0  0  0  0  0  0  0  0  0
   -2.1262   -1.2634   -0.0702 C   0  0  0  0  0  0  0  0  0  0  0  0
  1  2  1  0
  2  3  1  0
  3  4  1  6
  5  4  1  6
  5  6  1  0
  6  7  2  0
  6  8  1  0
  8  9  2  0
  8 10  1  0
  2 11  1  0
  5  2  1  0
 10  3  1  0
M  END
