
     RDKit          3D

 13 14  0  0  0  0  0  0  0  0999 V2000
   -4.0617    0.3292    0.2403 C   0  0  0  0  0  0  0  0  0  0  0  0
   -2.9256    0.7173   -0.5051 O   0  0  0  0  0  0  0  0  0  0  0  0
   -1.7068   -0.3380   -0.6532 P   0  0  2  0  0  5  0  0  0  0  0  0
   -2.1168   -2.0133   -1.5381 S   0  0  0  0  0  0  0  0  0  0  0  0
   -1.1760   -0.4312    0.8706 O   0  0  0  0  0  0  0  0  0  0  0  0
    0.1248   -0.9671    1.0265 C   0  0  0  0  0  0  0  0  0  0  0  0
    1.1287   -0.2812    0.1431 C   0  0  0  0  0  0  0  0  0  0  0  0
    2.4974   -0.3943    0.4289 C   0  0  0  0  0  0  0  0  0  0  0  0
    3.4470    0.2245   -0.3871 C   0  0  0  0  0  0  0  0  0  0  0  0
    3.0404    0.9585   -1.4998 C   0  0  0  0  0  0  0  0  0  0  0  0
    1.6845    1.0689   -1.8008 C   0  0  0  0  0  0  0  0  0  0  0  0
    0.7412    0.4423   -0.9884 C   0  0  0  0  0  0  0  0  0  0  0  0
   -0.5718    0.5878   -1.3362 O   0  0  0  0  0  0  0  0  0  0  0  0
  1  2  1  0
  3  2  1  1
  3  4  2  0
  3  5  1  0
  5  6  1  0
  6  7  1  0
  7  8  2  0
  8  9  1  0
  9 10  2  0
 10 11  1  0
 11 12  2  0
 12 13  1  0
 13  3  1  0
 12  7  1  0
M  END
