
     RDKit          3D

 26 27  0  0  0  0  0  0  0  0999 V2000
   -3.8633    3.1147   -2.0099 N   0  0  0  0  0  0  0  0  0  0  0  0
   -3.1922    2.3636   -1.4304 C   0  0  0  0  0  0  0  0  0  0  0  0
   -2.3297    1.4508   -0.7329 C   0  0  0  0  0  0  0  0  0  0  0  0
   -1.0283    1.4428   -1.0480 N   0  0  0  0  0  0  0  0  0  0  0  0
   -0.4729    0.5425   -0.2027 N   0  0  0  0  0  0  0  0  0  0  0  0
    0.9274    0.3578   -0.2003 C   0  0  0  0  0  0  0  0  0  0  0  0
    1.5902    0.0189   -1.3907 C   0  0  0  0  0  0  0  0  0  0  0  0
    0.7694   -0.3392   -2.8719 Cl  0  0  0  0  0  0  0  0  0  0  0  0
    2.9819   -0.1410   -1.3976 C   0  0  0  0  0  0  0  0  0  0  0  0
    3.7322    0.0308   -0.2266 C   0  0  0  0  0  0  0  0  0  0  0  0
    5.2347   -0.1185   -0.2438 C   0  0  0  0  0  0  0  0  0  0  0  0
    5.8658    1.0609   -0.4839 F   0  0  0  0  0  0  0  0  0  0  0  0
    5.6708   -0.9856   -1.1971 F   0  0  0  0  0  0  0  0  0  0  0  0
    5.7297   -0.5810    0.9366 F   0  0  0  0  0  0  0  0  0  0  0  0
    3.0639    0.3863    0.9535 C   0  0  0  0  0  0  0  0  0  0  0  0
    1.6728    0.5527    0.9723 C   0  0  0  0  0  0  0  0  0  0  0  0
    0.9904    1.1117    2.4607 Cl  0  0  0  0  0  0  0  0  0  0  0  0
   -1.4344   -0.0999    0.5866 C   0  0  0  0  0  0  0  0  0  0  0  0
   -1.1515   -1.1215    1.4355 N   0  0  0  0  0  0  0  0  0  0  0  0
   -2.6292    0.5119    0.2688 C   0  0  0  0  0  0  0  0  0  0  0  0
   -4.2212    0.1906    1.0076 S   0  0  0  0  0  4  0  0  0  0  0  0
   -5.2179    1.0427    0.2769 O   0  0  0  0  0  0  0  0  0  0  0  0
   -4.3934   -1.5426    0.5136 C   0  0  0  0  0  0  0  0  0  0  0  0
   -5.6546   -2.0035    0.7127 F   0  0  0  0  0  0  0  0  0  0  0  0
   -4.0905   -1.7552   -0.7917 F   0  0  0  0  0  0  0  0  0  0  0  0
   -3.5762   -2.3494    1.2475 F   0  0  0  0  0  0  0  0  0  0  0  0
  1  2  3  0
  2  3  1  0
  3  4  2  0
  4  5  1  0
  5  6  1  0
  6  7  2  0
  7  8  1  0
  7  9  1  0
  9 10  2  0
 10 11  1  0
 11 12  1  0
 11 13  1  0
 11 14  1  0
 10 15  1  0
 15 16  2  0
 16 17  1  0
  5 18  1  0
 18 19  1  0
 18 20  2  0
 20 21  1  0
 21 22  2  0
 21 23  1  6
 23 24  1  0
 23 25  1  0
 23 26  1  0
 20  3  1  0
 16  6  1  0
M  END
