
     RDKit          3D

 26 28  0  0  0  0  0  0  0  0999 V2000
   -5.0997    0.7159    0.9806 C   0  0  0  0  0  0  0  0  0  0  0  0
   -4.4636   -0.4081    0.1975 C   0  0  0  0  0  0  0  0  0  0  0  0
   -3.8897   -1.4935    1.0784 C   0  0  0  0  0  0  0  0  0  0  0  0
   -5.0163   -0.8398   -1.1516 C   0  0  1  0  0  0  0  0  0  0  0  0
   -6.2470   -0.2332   -1.6854 C   0  0  0  0  0  0  0  0  0  0  0  0
   -6.5025    0.1291   -2.9522 C   0  0  0  0  0  0  0  0  0  0  0  0
   -5.3433   -0.0551   -4.2161 Cl  0  0  0  0  0  0  0  0  0  0  0  0
   -8.0372    0.8075   -3.3695 Cl  0  0  0  0  0  0  0  0  0  0  0  0
   -3.7412   -0.0222   -1.0858 C   0  0  2  0  0  0  0  0  0  0  0  0
   -2.4437   -0.6391   -1.4473 C   0  0  0  0  0  0  0  0  0  0  0  0
   -2.3451   -1.5311   -2.2760 O   0  0  0  0  0  0  0  0  0  0  0  0
   -1.4293   -0.0873   -0.7367 O   0  0  0  0  0  0  0  0  0  0  0  0
   -0.1543   -0.6667   -1.0247 C   0  0  0  0  0  0  0  0  0  0  0  0
    0.8678   -0.1135   -0.0634 C   0  0  0  0  0  0  0  0  0  0  0  0
    0.6200   -0.0972    1.3182 C   0  0  0  0  0  0  0  0  0  0  0  0
    1.5749    0.4001    2.2079 C   0  0  0  0  0  0  0  0  0  0  0  0
    2.7959    0.8723    1.7299 C   0  0  0  0  0  0  0  0  0  0  0  0
    3.0652    0.8279    0.3614 C   0  0  0  0  0  0  0  0  0  0  0  0
    4.2394    1.3035   -0.1764 O   0  0  0  0  0  0  0  0  0  0  0  0
    5.4169    0.8660    0.3879 C   0  0  0  0  0  0  0  0  0  0  0  0
    6.4170    1.8206    0.5774 C   0  0  0  0  0  0  0  0  0  0  0  0
    7.6492    1.4416    1.1111 C   0  0  0  0  0  0  0  0  0  0  0  0
    7.8842    0.1066    1.4427 C   0  0  0  0  0  0  0  0  0  0  0  0
    6.8912   -0.8516    1.2344 C   0  0  0  0  0  0  0  0  0  0  0  0
    5.6583   -0.4751    0.6992 C   0  0  0  0  0  0  0  0  0  0  0  0
    2.1028    0.3551   -0.5332 C   0  0  0  0  0  0  0  0  0  0  0  0
  1  2  1  0
  2  3  1  0
  2  4  1  0
  4  5  1  6
  5  6  2  3
  6  7  1  0
  6  8  1  0
  4  9  1  0
  9 10  1  1
 10 11  2  0
 10 12  1  0
 12 13  1  0
 13 14  1  0
 14 15  2  0
 15 16  1  0
 16 17  2  0
 17 18  1  0
 18 19  1  0
 19 20  1  0
 20 21  2  0
 21 22  1  0
 22 23  2  0
 23 24  1  0
 24 25  2  0
 18 26  2  0
  9  2  1  0
 26 14  1  0
 25 20  1  0
M  END
