
     RDKit          3D

 16 16  0  0  0  0  0  0  0  0999 V2000
   -4.6345   -1.8273    0.1515 C   0  0  0  0  0  0  0  0  0  0  0  0
   -3.4086   -1.2386   -0.5281 C   0  0  0  0  0  0  0  0  0  0  0  0
   -2.1464   -1.8910   -0.0399 C   0  0  0  0  0  0  0  0  0  0  0  0
   -1.1845   -1.3278    0.7088 C   0  0  0  0  0  0  0  0  0  0  0  0
   -1.1865    0.0659    1.2684 C   0  0  0  0  0  0  0  0  0  0  0  0
   -0.4886    1.0978    0.3783 C   0  0  2  0  0  0  0  0  0  0  0  0
    1.0271    0.8744    0.1784 C   0  0  2  0  0  0  0  0  0  0  0  0
    1.5937    2.2967    0.0477 C   0  0  0  0  0  0  0  0  0  0  0  0
    0.8342    3.1170    1.0762 C   0  0  0  0  0  0  0  0  0  0  0  0
   -0.5166    2.4579    1.0535 C   0  0  0  0  0  0  0  0  0  0  0  0
   -1.5186    2.9626    1.5455 O   0  0  0  0  0  0  0  0  0  0  0  0
    1.3577    0.0283   -1.0538 C   0  0  0  0  0  0  0  0  0  0  0  0
    2.8322   -0.2795   -1.1291 C   0  0  0  0  0  0  0  0  0  0  0  0
    3.6236    0.3266   -1.8376 O   0  0  0  0  0  0  0  0  0  0  0  0
    3.1474   -1.2967   -0.2815 O   0  0  0  0  0  0  0  0  0  0  0  0
    4.5329   -1.6437   -0.2833 C   0  0  0  0  0  0  0  0  0  0  0  0
  1  2  1  0
  2  3  1  0
  3  4  2  0
  4  5  1  0
  6  5  1  1
  6  7  1  0
  7  8  1  0
  8  9  1  0
  9 10  1  0
 10 11  2  0
  7 12  1  6
 12 13  1  0
 13 14  2  0
 13 15  1  0
 15 16  1  0
 10  6  1  0
M  END
