
     RDKit          3D

 19 20  0  0  0  0  0  0  0  0999 V2000
   -0.5063    1.8256   -1.6587 O   0  0  0  0  0  0  0  0  0  0  0  0
   -1.1910    1.0529   -1.0054 C   0  0  0  0  0  0  0  0  0  0  0  0
   -2.7078    1.0565   -0.9814 C   0  0  2  0  0  0  0  0  0  0  0  0
   -3.3952    2.6807   -1.0334 Cl  0  0  0  0  0  0  0  0  0  0  0  0
   -3.0730    0.2309    0.2521 C   0  0  2  0  0  0  0  0  0  0  0  0
   -3.2888    0.9792    1.5763 C   0  0  0  0  0  0  0  0  0  0  0  0
   -1.8891    1.9033    2.1605 Cl  0  0  0  0  0  0  0  0  0  0  0  0
   -1.9102   -0.7562    0.3184 C   0  0  0  0  0  0  0  0  0  0  0  0
   -0.7730   -0.0517   -0.2335 N   0  0  0  0  0  0  0  0  0  0  0  0
    0.5657   -0.5018   -0.0597 C   0  0  0  0  0  0  0  0  0  0  0  0
    0.8305   -1.7386    0.5495 C   0  0  0  0  0  0  0  0  0  0  0  0
    2.1395   -2.1985    0.7258 C   0  0  0  0  0  0  0  0  0  0  0  0
    3.2147   -1.4268    0.2988 C   0  0  0  0  0  0  0  0  0  0  0  0
    2.9889   -0.1841   -0.3026 C   0  0  0  0  0  0  0  0  0  0  0  0
    4.1388    0.6662   -0.7844 C   0  0  0  0  0  0  0  0  0  0  0  0
    4.0048    1.9808   -0.4571 F   0  0  0  0  0  0  0  0  0  0  0  0
    4.2840    0.6254   -2.1375 F   0  0  0  0  0  0  0  0  0  0  0  0
    5.3426    0.2805   -0.2719 F   0  0  0  0  0  0  0  0  0  0  0  0
    1.6638    0.2613   -0.4795 C   0  0  0  0  0  0  0  0  0  0  0  0
  1  2  2  0
  2  3  1  0
  3  4  1  1
  3  5  1  0
  5  6  1  1
  6  7  1  0
  5  8  1  0
  8  9  1  0
  9 10  1  0
 10 11  2  0
 11 12  1  0
 12 13  2  0
 13 14  1  0
 14 15  1  0
 15 16  1  0
 15 17  1  0
 15 18  1  0
 14 19  2  0
  9  2  1  0
 19 10  1  0
M  END
