
     RDKit          3D

 26 27  0  0  0  0  0  0  0  0999 V2000
   -3.3545   -3.1998   -2.7725 N   0  0  0  0  0  0  0  0  0  0  0  0
   -2.7301   -2.4766   -2.1127 C   0  0  0  0  0  0  0  0  0  0  0  0
   -2.0382   -1.5590   -1.2569 C   0  0  0  0  0  0  0  0  0  0  0  0
   -0.7028   -1.5061   -1.2854 N   0  0  0  0  0  0  0  0  0  0  0  0
   -0.3739   -0.5771   -0.3448 N   0  0  0  0  0  0  0  0  0  0  0  0
    0.9855   -0.2761   -0.1031 C   0  0  0  0  0  0  0  0  0  0  0  0
    1.5309   -0.3852    1.1848 C   0  0  0  0  0  0  0  0  0  0  0  0
    0.6514   -0.9751    2.5533 Cl  0  0  0  0  0  0  0  0  0  0  0  0
    2.8856   -0.0978    1.4009 C   0  0  0  0  0  0  0  0  0  0  0  0
    3.7202    0.2840    0.3418 C   0  0  0  0  0  0  0  0  0  0  0  0
    5.1735    0.6111    0.5873 C   0  0  0  0  0  0  0  0  0  0  0  0
    5.7177   -0.1265    1.5930 F   0  0  0  0  0  0  0  0  0  0  0  0
    5.9595    0.3982   -0.5024 F   0  0  0  0  0  0  0  0  0  0  0  0
    5.3511    1.9136    0.9349 F   0  0  0  0  0  0  0  0  0  0  0  0
    3.1693    0.3888   -0.9419 C   0  0  0  0  0  0  0  0  0  0  0  0
    1.8155    0.1074   -1.1699 C   0  0  0  0  0  0  0  0  0  0  0  0
    1.2417    0.3784   -2.7815 Cl  0  0  0  0  0  0  0  0  0  0  0  0
   -1.5093   -0.0304    0.2603 C   0  0  0  0  0  0  0  0  0  0  0  0
   -1.4993    0.9658    1.1863 N   0  0  0  0  0  0  0  0  0  0  0  0
   -2.5806   -0.6578   -0.3329 C   0  0  0  0  0  0  0  0  0  0  0  0
   -4.3124   -0.3830    0.0072 S   0  0  0  0  0  4  0  0  0  0  0  0
   -4.3800    0.3204    1.3373 O   0  0  0  0  0  0  0  0  0  0  0  0
   -4.6184    0.7984   -1.3385 C   0  0  0  0  0  0  0  0  0  0  0  0
   -4.3695    0.2344   -2.5493 F   0  0  0  0  0  0  0  0  0  0  0  0
   -5.9115    1.2096   -1.3588 F   0  0  0  0  0  0  0  0  0  0  0  0
   -3.8455    1.9092   -1.2545 F   0  0  0  0  0  0  0  0  0  0  0  0
  1  2  3  0
  2  3  1  0
  3  4  2  0
  4  5  1  0
  5  6  1  0
  6  7  2  0
  7  8  1  0
  7  9  1  0
  9 10  2  0
 10 11  1  0
 11 12  1  0
 11 13  1  0
 11 14  1  0
 10 15  1  0
 15 16  2  0
 16 17  1  0
  5 18  1  0
 18 19  1  0
 18 20  2  0
 20 21  1  0
 21 22  2  0
 21 23  1  6
 23 24  1  0
 23 25  1  0
 23 26  1  0
 20  3  1  0
 16  6  1  0
M  END
