
     RDKit          3D

  7  6  0  0  0  0  0  0  0  0999 V2000
    1.6644    1.2394   -0.1878 C   0  0  0  0  0  0  0  0  0  0  0  0
    1.0292    0.0265    0.4796 C   0  0  0  0  0  0  0  0  0  0  0  0
   -0.2051   -0.4846   -0.2752 C   0  0  1  0  0  0  0  0  0  0  0  0
   -0.7076   -1.8009    0.3132 C   0  0  0  0  0  0  0  0  0  0  0  0
   -1.3269    0.5286   -0.2787 C   0  0  0  0  0  0  0  0  0  0  0  0
   -1.8479    1.0123   -1.2706 O   0  0  0  0  0  0  0  0  0  0  0  0
   -1.7465    0.8803    0.9508 O   0  0  0  0  0  0  0  0  0  0  0  0
  1  2  1  0
  2  3  1  0
  3  4  1  1
  3  5  1  0
  5  6  2  0
  5  7  1  0
M  END
