
     RDKit          3D

 14 14  0  0  0  0  0  0  0  0999 V2000
    0.1111   -2.6383   -1.0152 C   0  0  0  0  0  0  0  0  0  0  0  0
   -0.7865   -1.6469   -0.3195 C   0  0  0  0  0  0  0  0  0  0  0  0
   -2.1004   -1.9081   -0.1795 C   0  0  0  0  0  0  0  0  0  0  0  0
   -3.0590   -1.0381    0.5746 C   0  0  0  0  0  0  0  0  0  0  0  0
   -2.3617    0.0249    1.4235 C   0  0  0  0  0  0  0  0  0  0  0  0
   -1.1916    0.7122    0.6782 C   0  0  0  0  0  0  0  0  0  0  0  0
   -0.1442   -0.3904    0.2725 C   0  0  2  0  0  0  0  0  0  0  0  0
    0.9454    0.1605   -0.6263 C   0  0  0  0  0  0  0  0  0  0  0  0
    2.2318    0.2830   -0.2615 C   0  0  0  0  0  0  0  0  0  0  0  0
    3.2450    0.8255   -1.2110 C   0  0  0  0  0  0  0  0  0  0  0  0
    2.9464    1.1467   -2.3588 O   0  0  0  0  0  0  0  0  0  0  0  0
    4.6601    0.9364   -0.7093 C   0  0  0  0  0  0  0  0  0  0  0  0
   -0.5439    1.7332    1.6389 C   0  0  0  0  0  0  0  0  0  0  0  0
   -1.7440    1.4934   -0.5372 C   0  0  0  0  0  0  0  0  0  0  0  0
  1  2  1  0
  2  3  2  0
  3  4  1  0
  4  5  1  0
  5  6  1  0
  6  7  1  0
  7  8  1  6
  8  9  2  0
  9 10  1  0
 10 11  2  0
 10 12  1  0
  6 13  1  0
  6 14  1  0
  7  2  1  0
M  END
