
     RDKit          3D

 24 26  0  0  0  0  0  0  0  0999 V2000
    3.4647   -2.4911   -1.9798 C   0  0  0  0  0  0  0  0  0  0  0  0
    3.7067   -1.3935   -0.9814 C   0  0  0  0  0  0  0  0  0  0  0  0
    4.5040   -0.2292   -1.4979 C   0  0  0  0  0  0  0  0  0  0  0  0
    3.2274   -1.4788    0.2755 C   0  0  0  0  0  0  0  0  0  0  0  0
    3.3894   -0.4983    1.3610 C   0  0  2  0  0  0  0  0  0  0  0  0
    2.3079   -0.2812    2.4044 C   0  0  2  0  0  0  0  0  0  0  0  0
    1.0872   -1.1212    2.4473 C   0  0  0  0  0  0  0  0  0  0  0  0
    1.1359   -2.3054    2.7537 O   0  0  0  0  0  0  0  0  0  0  0  0
   -0.0362   -0.4117    2.1969 O   0  0  0  0  0  0  0  0  0  0  0  0
   -1.2450   -1.1679    2.2626 C   0  0  0  0  0  0  0  0  0  0  0  0
   -2.1585   -0.6174    1.2979 N   0  0  0  0  0  0  0  0  0  0  0  0
   -2.3324   -1.1140    0.0461 C   0  0  0  0  0  0  0  0  0  0  0  0
   -1.8259   -2.0938   -0.4686 O   0  0  0  0  0  0  0  0  0  0  0  0
   -3.2897   -0.2298   -0.6199 C   0  0  0  0  0  0  0  0  0  0  0  0
   -3.6318    0.7327    0.2422 C   0  0  0  0  0  0  0  0  0  0  0  0
   -4.5556    1.8525   -0.0568 C   0  0  0  0  0  0  0  0  0  0  0  0
   -4.8285    1.9420   -1.5709 C   0  0  0  0  0  0  0  0  0  0  0  0
   -5.0169    0.5610   -2.2225 C   0  0  0  0  0  0  0  0  0  0  0  0
   -3.8061   -0.3631   -2.0012 C   0  0  0  0  0  0  0  0  0  0  0  0
   -2.9021    0.5011    1.4906 C   0  0  0  0  0  0  0  0  0  0  0  0
   -2.9832    1.2085    2.4761 O   0  0  0  0  0  0  0  0  0  0  0  0
    2.5899    0.7976    1.3683 C   0  0  0  0  0  0  0  0  0  0  0  0
    3.3103    2.0367    1.8461 C   0  0  0  0  0  0  0  0  0  0  0  0
    1.5934    1.0873    0.2708 C   0  0  0  0  0  0  0  0  0  0  0  0
  1  2  1  0
  2  3  1  0
  2  4  2  3
  5  4  1  6
  5  6  1  0
  6  7  1  6
  7  8  2  0
  7  9  1  0
  9 10  1  0
 10 11  1  0
 11 12  1  0
 12 13  2  0
 12 14  1  0
 14 15  2  0
 15 16  1  0
 16 17  1  0
 17 18  1  0
 18 19  1  0
 15 20  1  0
 20 21  2  0
  6 22  1  0
 22 23  1  0
 22 24  1  0
 22  5  1  0
 20 11  1  0
 19 14  1  0
M  END
