
     RDKit          3D

 10 10  0  0  0  0  0  0  0  0999 V2000
   -2.3170    0.1295   -1.2605 C   0  0  0  0  0  0  0  0  0  0  0  0
   -1.6666    0.2409    0.1117 C   0  0  2  0  0  0  0  0  0  0  0  0
   -0.1591    0.1172    0.0522 C   0  0  0  0  0  0  0  0  0  0  0  0
    0.4530   -1.1019   -0.2813 C   0  0  0  0  0  0  0  0  0  0  0  0
    1.8446   -1.2107   -0.3366 C   0  0  0  0  0  0  0  0  0  0  0  0
    2.6360   -0.0979   -0.0592 C   0  0  0  0  0  0  0  0  0  0  0  0
    2.0460    1.1207    0.2723 C   0  0  0  0  0  0  0  0  0  0  0  0
    0.6535    1.2270    0.3271 C   0  0  0  0  0  0  0  0  0  0  0  0
    4.7066   -0.2556   -0.1409 I   0  0  0  0  0  0  0  0  0  0  0  0
   -2.2065   -0.7707    0.9601 O   0  0  0  0  0  0  0  0  0  0  0  0
  2  1  1  6
  2  3  1  0
  3  4  2  0
  4  5  1  0
  5  6  2  0
  6  7  1  0
  7  8  2  0
  6  9  1  0
  2 10  1  0
  8  3  1  0
M  END
