
     RDKit          3D

 22 23  0  0  0  0  0  0  0  0999 V2000
   -5.1257    0.5317    1.3310 C   0  0  0  0  0  0  0  0  0  0  0  0
   -4.3234    0.4551    0.1531 O   0  0  0  0  0  0  0  0  0  0  0  0
   -4.0476   -0.8157   -0.2528 C   0  0  0  0  0  0  0  0  0  0  0  0
   -4.4627   -1.8328    0.2921 O   0  0  0  0  0  0  0  0  0  0  0  0
   -3.1664   -0.8272   -1.5043 C   0  0  1  0  0  0  0  0  0  0  0  0
   -4.0528   -0.5474   -2.7146 C   0  0  0  0  0  0  0  0  0  0  0  0
   -2.1225    0.1416   -1.5105 O   0  0  0  0  0  0  0  0  0  0  0  0
   -1.0585   -0.0399   -0.6717 C   0  0  0  0  0  0  0  0  0  0  0  0
   -0.8373   -1.1359    0.1636 C   0  0  0  0  0  0  0  0  0  0  0  0
    0.3031   -1.1814    0.9732 C   0  0  0  0  0  0  0  0  0  0  0  0
    1.2329   -0.1431    0.9375 C   0  0  0  0  0  0  0  0  0  0  0  0
    2.3139   -0.2471    1.7828 O   0  0  0  0  0  0  0  0  0  0  0  0
    3.5455    0.0948    1.2690 C   0  0  0  0  0  0  0  0  0  0  0  0
    4.0393   -0.5319    0.1184 C   0  0  0  0  0  0  0  0  0  0  0  0
    5.3076   -0.2022   -0.3625 C   0  0  0  0  0  0  0  0  0  0  0  0
    6.0829    0.7387    0.3152 C   0  0  0  0  0  0  0  0  0  0  0  0
    7.6457    1.1413   -0.2816 Cl  0  0  0  0  0  0  0  0  0  0  0  0
    5.6074    1.3513    1.4734 C   0  0  0  0  0  0  0  0  0  0  0  0
    4.3392    1.0221    1.9545 C   0  0  0  0  0  0  0  0  0  0  0  0
    3.7775    1.7945    3.3921 Cl  0  0  0  0  0  0  0  0  0  0  0  0
    1.0086    0.9647    0.1211 C   0  0  0  0  0  0  0  0  0  0  0  0
   -0.1307    1.0068   -0.6856 C   0  0  0  0  0  0  0  0  0  0  0  0
  1  2  1  0
  2  3  1  0
  3  4  2  0
  3  5  1  0
  5  6  1  6
  5  7  1  0
  7  8  1  0
  8  9  2  0
  9 10  1  0
 10 11  2  0
 11 12  1  0
 12 13  1  0
 13 14  2  0
 14 15  1  0
 15 16  2  0
 16 17  1  0
 16 18  1  0
 18 19  2  0
 19 20  1  0
 11 21  1  0
 21 22  2  0
 22  8  1  0
 19 13  1  0
M  END
