
     RDKit          3D

 16 15  0  0  0  0  0  0  0  0999 V2000
    4.8321    0.1590    1.6039 C   0  0  0  0  0  0  0  0  0  0  0  0
    3.9184   -0.5872    0.6676 C   0  0  0  0  0  0  0  0  0  0  0  0
    2.6252   -0.2310    0.5418 C   0  0  0  0  0  0  0  0  0  0  0  0
    1.5704   -0.8789   -0.3157 C   0  0  0  0  0  0  0  0  0  0  0  0
    1.3263   -0.1520   -1.6462 C   0  0  0  0  0  0  0  0  0  0  0  0
    0.7377    1.2398   -1.5128 C   0  0  0  0  0  0  0  0  0  0  0  0
   -0.5682    1.4942   -1.2936 C   0  0  0  0  0  0  0  0  0  0  0  0
   -1.6770    0.4884   -1.1204 C   0  0  0  0  0  0  0  0  0  0  0  0
   -2.2692    0.5648    0.2934 C   0  0  0  0  0  0  0  0  0  0  0  0
   -3.3506   -0.4977    0.5900 C   0  0  2  0  0  0  0  0  0  0  0  0
   -4.5241   -0.4113   -0.3939 C   0  0  0  0  0  0  0  0  0  0  0  0
   -3.7491   -0.3949    2.0482 C   0  0  0  0  0  0  0  0  0  0  0  0
   -4.9570   -0.1173    2.5591 C   0  0  0  0  0  0  0  0  0  0  0  0
   -2.7619   -1.7919    0.4386 O   0  0  0  0  0  0  0  0  0  0  0  0
    1.7200    2.3711   -1.6770 C   0  0  0  0  0  0  0  0  0  0  0  0
    4.5811   -1.7078   -0.0845 C   0  0  0  0  0  0  0  0  0  0  0  0
  1  2  1  0
  2  3  2  3
  3  4  1  0
  4  5  1  0
  5  6  1  0
  6  7  2  0
  7  8  1  0
  8  9  1  0
  9 10  1  0
 10 11  1  6
 10 12  1  0
 12 13  2  0
 10 14  1  0
  6 15  1  0
  2 16  1  0
M  END
