
     RDKit          3D

 21 22  0  0  0  0  0  0  0  0999 V2000
   -2.3547    1.7690   -1.5942 C   0  0  0  0  0  0  0  0  0  0  0  0
   -2.0291    0.7008   -0.5212 C   0  0  0  0  0  0  0  0  0  0  0  0
   -2.0819    1.3841    0.8571 C   0  0  0  0  0  0  0  0  0  0  0  0
   -3.1410   -0.3606   -0.5933 C   0  0  0  0  0  0  0  0  0  0  0  0
   -0.5969    0.1354   -0.8142 C   0  0  2  0  0  0  0  0  0  0  0  0
   -0.5726   -0.4861   -2.1049 O   0  0  0  0  0  0  0  0  0  0  0  0
    0.0770   -0.7692    0.2602 C   0  0  2  0  0  0  0  0  0  0  0  0
    1.5665   -1.0580   -0.0563 C   0  0  0  0  0  0  0  0  0  0  0  0
    2.4821    0.1254    0.1969 C   0  0  0  0  0  0  0  0  0  0  0  0
    2.7637    0.4767    1.5312 C   0  0  0  0  0  0  0  0  0  0  0  0
    3.5894    1.5627    1.8279 C   0  0  0  0  0  0  0  0  0  0  0  0
    4.1473    2.3088    0.7948 C   0  0  0  0  0  0  0  0  0  0  0  0
    5.1627    3.6478    1.1619 Cl  0  0  0  0  0  0  0  0  0  0  0  0
    3.8913    1.9768   -0.5314 C   0  0  0  0  0  0  0  0  0  0  0  0
    3.0653    0.8888   -0.8306 C   0  0  0  0  0  0  0  0  0  0  0  0
    2.8070    0.5374   -2.5007 Cl  0  0  0  0  0  0  0  0  0  0  0  0
   -0.6089   -2.0405    0.4523 N   0  0  0  0  0  0  0  0  0  0  0  0
   -0.9980   -2.6058    1.6271 C   0  0  0  0  0  0  0  0  0  0  0  0
   -1.5367   -3.7789    1.3900 N   0  0  0  0  0  0  0  0  0  0  0  0
   -1.4452   -3.8942    0.0323 C   0  0  0  0  0  0  0  0  0  0  0  0
   -0.8819   -2.8535   -0.5892 N   0  0  0  0  0  0  0  0  0  0  0  0
  1  2  1  0
  2  3  1  0
  2  4  1  0
  2  5  1  0
  5  6  1  6
  5  7  1  0
  7  8  1  6
  8  9  1  0
  9 10  2  0
 10 11  1  0
 11 12  2  0
 12 13  1  0
 12 14  1  0
 14 15  2  0
 15 16  1  0
  7 17  1  0
 17 18  1  0
 18 19  2  0
 19 20  1  0
 20 21  2  0
 15  9  1  0
 21 17  1  0
M  END
