
     RDKit          3D

 19 20  0  0  0  0  0  0  0  0999 V2000
   -0.4524    2.4650    0.4234 O   0  0  0  0  0  0  0  0  0  0  0  0
   -1.1496    1.4627    0.4436 C   0  0  0  0  0  0  0  0  0  0  0  0
   -2.6628    1.4555    0.6062 C   0  0  1  0  0  0  0  0  0  0  0  0
   -3.4130    2.8381   -0.1920 Cl  0  0  0  0  0  0  0  0  0  0  0  0
   -3.0713    0.0713    0.0879 C   0  0  1  0  0  0  0  0  0  0  0  0
   -3.2353   -0.0539   -1.4338 C   0  0  0  0  0  0  0  0  0  0  0  0
   -4.8977    0.3367   -1.9462 Cl  0  0  0  0  0  0  0  0  0  0  0  0
   -1.8772   -0.7631    0.5492 C   0  0  0  0  0  0  0  0  0  0  0  0
   -0.7384    0.1134    0.4022 N   0  0  0  0  0  0  0  0  0  0  0  0
    0.6026   -0.3600    0.3697 C   0  0  0  0  0  0  0  0  0  0  0  0
    0.8888   -1.7156    0.5954 C   0  0  0  0  0  0  0  0  0  0  0  0
    2.2016   -2.1972    0.5669 C   0  0  0  0  0  0  0  0  0  0  0  0
    3.2585   -1.3313    0.3075 C   0  0  0  0  0  0  0  0  0  0  0  0
    3.0097    0.0243    0.0687 C   0  0  0  0  0  0  0  0  0  0  0  0
    4.1409    0.9861   -0.2035 C   0  0  0  0  0  0  0  0  0  0  0  0
    3.8815    1.8302   -1.2397 F   0  0  0  0  0  0  0  0  0  0  0  0
    5.3110    0.3621   -0.5213 F   0  0  0  0  0  0  0  0  0  0  0  0
    4.4215    1.7761    0.8685 F   0  0  0  0  0  0  0  0  0  0  0  0
    1.6821    0.4950    0.1080 C   0  0  0  0  0  0  0  0  0  0  0  0
  1  2  2  0
  2  3  1  0
  3  4  1  6
  3  5  1  0
  5  6  1  6
  6  7  1  0
  5  8  1  0
  8  9  1  0
  9 10  1  0
 10 11  2  0
 11 12  1  0
 12 13  2  0
 13 14  1  0
 14 15  1  0
 15 16  1  0
 15 17  1  0
 15 18  1  0
 14 19  2  0
  9  2  1  0
 19 10  1  0
M  END
