
     RDKit          3D

 19 20  0  0  0  0  0  0  0  0999 V2000
    1.2956   -2.7982    0.2190 O   0  0  0  0  0  0  0  0  0  0  0  0
    1.5525   -1.6766   -0.1928 C   0  0  0  0  0  0  0  0  0  0  0  0
    2.9205   -1.2760   -0.7166 C   0  0  1  0  0  0  0  0  0  0  0  0
    3.0620   -1.8478   -2.3984 Cl  0  0  0  0  0  0  0  0  0  0  0  0
    2.8967    0.2480   -0.6429 C   0  0  2  0  0  0  0  0  0  0  0  0
    3.3841    0.7154    0.7335 C   0  0  0  0  0  0  0  0  0  0  0  0
    3.4809    2.4922    0.8149 Cl  0  0  0  0  0  0  0  0  0  0  0  0
    1.4230    0.5664   -0.8752 C   0  0  0  0  0  0  0  0  0  0  0  0
    0.7083   -0.5550   -0.3011 N   0  0  0  0  0  0  0  0  0  0  0  0
   -0.6876   -0.5192   -0.0251 C   0  0  0  0  0  0  0  0  0  0  0  0
   -1.3473   -1.5883    0.5927 C   0  0  0  0  0  0  0  0  0  0  0  0
   -2.7187   -1.5395    0.8662 C   0  0  0  0  0  0  0  0  0  0  0  0
   -3.4632   -0.4163    0.5230 C   0  0  0  0  0  0  0  0  0  0  0  0
   -2.8417    0.6670   -0.1053 C   0  0  0  0  0  0  0  0  0  0  0  0
   -3.6294    1.9008   -0.4699 C   0  0  0  0  0  0  0  0  0  0  0  0
   -4.9535    1.6561   -0.6738 F   0  0  0  0  0  0  0  0  0  0  0  0
   -3.1818    2.4967   -1.6108 F   0  0  0  0  0  0  0  0  0  0  0  0
   -3.5684    2.8562    0.4978 F   0  0  0  0  0  0  0  0  0  0  0  0
   -1.4576    0.6062   -0.3651 C   0  0  0  0  0  0  0  0  0  0  0  0
  1  2  2  0
  2  3  1  0
  3  4  1  6
  3  5  1  0
  5  6  1  1
  6  7  1  0
  5  8  1  0
  8  9  1  0
  9 10  1  0
 10 11  2  0
 11 12  1  0
 12 13  2  0
 13 14  1  0
 14 15  1  0
 15 16  1  0
 15 17  1  0
 15 18  1  0
 14 19  2  0
  9  2  1  0
 19 10  1  0
M  END
