
     RDKit          3D

 24 26  0  0  0  0  0  0  0  0999 V2000
   -3.9514   -2.8743   -0.8622 C   0  0  0  0  0  0  0  0  0  0  0  0
   -3.9953   -1.6410   -0.0016 C   0  0  0  0  0  0  0  0  0  0  0  0
   -5.3601   -1.2780    0.5139 C   0  0  0  0  0  0  0  0  0  0  0  0
   -2.8779   -0.9343    0.2639 C   0  0  0  0  0  0  0  0  0  0  0  0
   -2.7724    0.2773    1.0866 C   0  0  1  0  0  0  0  0  0  0  0  0
   -1.7126    1.3357    0.8772 C   0  0  1  0  0  0  0  0  0  0  0  0
   -0.6421    1.3035   -0.1526 C   0  0  0  0  0  0  0  0  0  0  0  0
   -0.6393    0.5650   -1.1263 O   0  0  0  0  0  0  0  0  0  0  0  0
    0.3241    2.2103    0.1451 O   0  0  0  0  0  0  0  0  0  0  0  0
    1.4117    2.2627   -0.7817 C   0  0  0  0  0  0  0  0  0  0  0  0
    2.3606    1.2184   -0.5069 N   0  0  0  0  0  0  0  0  0  0  0  0
    2.9462    0.4681   -1.4768 C   0  0  0  0  0  0  0  0  0  0  0  0
    2.7720    0.4959   -2.6811 O   0  0  0  0  0  0  0  0  0  0  0  0
    3.9379   -0.3755   -0.8062 C   0  0  0  0  0  0  0  0  0  0  0  0
    3.9807   -0.0161    0.4786 C   0  0  0  0  0  0  0  0  0  0  0  0
    4.8900   -0.5952    1.4952 C   0  0  0  0  0  0  0  0  0  0  0  0
    5.9912   -1.4362    0.8233 C   0  0  0  0  0  0  0  0  0  0  0  0
    5.4522   -2.2882   -0.3382 C   0  0  0  0  0  0  0  0  0  0  0  0
    4.7673   -1.4364   -1.4233 C   0  0  0  0  0  0  0  0  0  0  0  0
    3.0192    1.0715    0.6723 C   0  0  0  0  0  0  0  0  0  0  0  0
    2.9034    1.7078    1.7035 O   0  0  0  0  0  0  0  0  0  0  0  0
   -3.1634    1.6364    0.5218 C   0  0  0  0  0  0  0  0  0  0  0  0
   -3.9174    2.5719    1.4369 C   0  0  0  0  0  0  0  0  0  0  0  0
   -3.5679    1.7809   -0.9277 C   0  0  0  0  0  0  0  0  0  0  0  0
  1  2  1  0
  2  3  1  0
  2  4  2  3
  5  4  1  6
  5  6  1  0
  6  7  1  6
  7  8  2  0
  7  9  1  0
  9 10  1  0
 10 11  1  0
 11 12  1  0
 12 13  2  0
 12 14  1  0
 14 15  2  0
 15 16  1  0
 16 17  1  0
 17 18  1  0
 18 19  1  0
 15 20  1  0
 20 21  2  0
  6 22  1  0
 22 23  1  0
 22 24  1  0
 22  5  1  0
 20 11  1  0
 19 14  1  0
M  END
