
     RDKit          3D

 14 13  0  0  0  0  0  0  0  0999 V2000
   -2.7805    0.9130    1.2185 C   0  0  0  0  0  0  0  0  0  0  0  0
   -2.6332   -0.2328    0.2127 C   0  0  0  0  0  0  0  0  0  0  0  0
   -2.8441    0.2953   -1.2102 C   0  0  0  0  0  0  0  0  0  0  0  0
   -1.2874   -0.9631    0.4088 C   0  0  2  0  0  0  0  0  0  0  0  0
   -0.1384   -0.1258    0.0530 N   0  0  0  0  0  0  0  0  0  0  0  0
    1.0601   -0.2565    0.7249 C   0  0  0  0  0  0  0  0  0  0  0  0
    1.1671   -0.9424    1.7381 O   0  0  0  0  0  0  0  0  0  0  0  0
    2.2433    0.5150    0.1080 C   0  0  0  0  0  0  0  0  0  0  0  0
    1.8953    2.0063   -0.0096 C   0  0  0  0  0  0  0  0  0  0  0  0
    2.5771   -0.0605   -1.2764 C   0  0  0  0  0  0  0  0  0  0  0  0
    3.4773    0.3651    1.0148 C   0  0  0  0  0  0  0  0  0  0  0  0
   -1.2277   -2.2426   -0.4302 C   0  0  0  0  0  0  0  0  0  0  0  0
   -0.6259   -2.3890   -1.4848 O   0  0  0  0  0  0  0  0  0  0  0  0
   -1.9645   -3.2491    0.0812 O   0  0  0  0  0  0  0  0  0  0  0  0
  1  2  1  0
  2  3  1  0
  2  4  1  0
  4  5  1  6
  5  6  1  0
  6  7  2  0
  6  8  1  0
  8  9  1  0
  8 10  1  0
  8 11  1  0
  4 12  1  0
 12 13  2  0
 12 14  1  0
M  END
