
     RDKit          3D

 24 26  0  0  0  0  0  0  0  0999 V2000
   -1.2453    1.0504    1.9629 C   0  0  0  0  0  0  0  0  0  0  0  0
   -2.7442    1.0432    1.8387 C   0  0  0  0  0  0  0  0  0  0  0  0
   -3.4642    1.8589    2.8804 C   0  0  0  0  0  0  0  0  0  0  0  0
   -3.4195    0.3788    0.8781 C   0  0  0  0  0  0  0  0  0  0  0  0
   -2.8572   -0.4541   -0.1961 C   0  0  1  0  0  0  0  0  0  0  0  0
   -2.4051   -1.8629    0.1351 C   0  0  2  0  0  0  0  0  0  0  0  0
   -1.1508   -2.4195   -0.4170 C   0  0  0  0  0  0  0  0  0  0  0  0
   -1.0703   -3.5745   -0.8072 O   0  0  0  0  0  0  0  0  0  0  0  0
   -0.1424   -1.5158   -0.3920 O   0  0  0  0  0  0  0  0  0  0  0  0
    1.0864   -2.0404   -0.8842 C   0  0  0  0  0  0  0  0  0  0  0  0
    2.0826   -1.0165   -0.7331 N   0  0  0  0  0  0  0  0  0  0  0  0
    2.3184   -0.0364   -1.6432 C   0  0  0  0  0  0  0  0  0  0  0  0
    1.8078    0.1377   -2.7344 O   0  0  0  0  0  0  0  0  0  0  0  0
    3.3411    0.8324   -1.0578 C   0  0  0  0  0  0  0  0  0  0  0  0
    3.6317    0.3655    0.1590 C   0  0  0  0  0  0  0  0  0  0  0  0
    4.6258    0.9573    1.0839 C   0  0  0  0  0  0  0  0  0  0  0  0
    5.5104    1.9778    0.3449 C   0  0  0  0  0  0  0  0  0  0  0  0
    4.7013    2.8663   -0.6152 C   0  0  0  0  0  0  0  0  0  0  0  0
    3.9369    2.0434   -1.6700 C   0  0  0  0  0  0  0  0  0  0  0  0
    2.8121   -0.8250    0.3938 C   0  0  0  0  0  0  0  0  0  0  0  0
    2.8148   -1.4713    1.4242 O   0  0  0  0  0  0  0  0  0  0  0  0
   -3.6233   -1.6467   -0.7510 C   0  0  0  0  0  0  0  0  0  0  0  0
   -4.9584   -2.0592   -0.1787 C   0  0  0  0  0  0  0  0  0  0  0  0
   -3.5159   -1.8918   -2.2386 C   0  0  0  0  0  0  0  0  0  0  0  0
  1  2  1  0
  2  3  1  0
  2  4  2  3
  5  4  1  1
  5  6  1  0
  6  7  1  6
  7  8  2  0
  7  9  1  0
  9 10  1  0
 10 11  1  0
 11 12  1  0
 12 13  2  0
 12 14  1  0
 14 15  2  0
 15 16  1  0
 16 17  1  0
 17 18  1  0
 18 19  1  0
 15 20  1  0
 20 21  2  0
  6 22  1  0
 22 23  1  0
 22 24  1  0
 22  5  1  0
 20 11  1  0
 19 14  1  0
M  END
