
     RDKit          3D

 25 27  0  0  0  0  0  0  0  0999 V2000
    5.2830    0.3987   -0.7575 C   0  0  0  0  0  0  0  0  0  0  0  0
    3.7424    0.2702   -0.6745 C   0  0  0  0  0  0  0  0  0  0  0  0
    3.1751    1.6992   -0.5820 C   0  0  0  0  0  0  0  0  0  0  0  0
    3.2542   -0.3748   -1.9852 C   0  0  0  0  0  0  0  0  0  0  0  0
    3.3561   -0.6056    0.5717 C   0  0  2  0  0  0  0  0  0  0  0  0
    4.0883   -1.8420    0.5000 O   0  0  0  0  0  0  0  0  0  0  0  0
    1.8392   -0.9373    0.7465 C   0  0  2  0  0  0  0  0  0  0  0  0
    1.0849    0.2771    0.8586 O   0  0  0  0  0  0  0  0  0  0  0  0
   -0.2339    0.2784    0.4992 C   0  0  0  0  0  0  0  0  0  0  0  0
   -0.8237    1.5440    0.4814 C   0  0  0  0  0  0  0  0  0  0  0  0
   -2.1688    1.7032    0.1334 C   0  0  0  0  0  0  0  0  0  0  0  0
   -2.9620    0.5965   -0.1994 C   0  0  0  0  0  0  0  0  0  0  0  0
   -4.3794    0.7571   -0.5626 C   0  0  0  0  0  0  0  0  0  0  0  0
   -5.3831    0.0285    0.0975 C   0  0  0  0  0  0  0  0  0  0  0  0
   -6.7292    0.1806   -0.2461 C   0  0  0  0  0  0  0  0  0  0  0  0
   -7.0948    1.0645   -1.2580 C   0  0  0  0  0  0  0  0  0  0  0  0
   -6.1162    1.7963   -1.9256 C   0  0  0  0  0  0  0  0  0  0  0  0
   -4.7706    1.6438   -1.5799 C   0  0  0  0  0  0  0  0  0  0  0  0
   -2.3595   -0.6705   -0.1686 C   0  0  0  0  0  0  0  0  0  0  0  0
   -1.0106   -0.8311    0.1775 C   0  0  0  0  0  0  0  0  0  0  0  0
    1.6232   -1.7159    1.9683 N   0  0  0  0  0  0  0  0  0  0  0  0
    1.7653   -1.2967    3.2579 C   0  0  0  0  0  0  0  0  0  0  0  0
    1.4717   -2.2785    4.0785 N   0  0  0  0  0  0  0  0  0  0  0  0
    1.1179   -3.2889    3.2308 C   0  0  0  0  0  0  0  0  0  0  0  0
    1.1755   -2.9925    1.9301 N   0  0  0  0  0  0  0  0  0  0  0  0
  1  2  1  0
  2  3  1  0
  2  4  1  0
  2  5  1  0
  5  6  1  6
  5  7  1  0
  7  8  1  1
  8  9  1  0
  9 10  2  0
 10 11  1  0
 11 12  2  0
 12 13  1  0
 13 14  2  0
 14 15  1  0
 15 16  2  0
 16 17  1  0
 17 18  2  0
 12 19  1  0
 19 20  2  0
  7 21  1  0
 21 22  1  0
 22 23  2  0
 23 24  1  0
 24 25  2  0
 20  9  1  0
 25 21  1  0
 18 13  1  0
M  END
