
     RDKit          3D

 24 26  0  0  0  0  0  0  0  0999 V2000
   -4.6392   -2.3950   -1.8041 C   0  0  0  0  0  0  0  0  0  0  0  0
   -4.4078   -1.2364   -0.8708 C   0  0  0  0  0  0  0  0  0  0  0  0
   -5.1223    0.0312   -1.2486 C   0  0  0  0  0  0  0  0  0  0  0  0
   -3.6210   -1.3632    0.2170 C   0  0  0  0  0  0  0  0  0  0  0  0
   -3.3267   -0.3380    1.2303 C   0  0  1  0  0  0  0  0  0  0  0  0
   -2.0252   -0.2880    2.0041 C   0  0  1  0  0  0  0  0  0  0  0  0
   -0.8515   -1.1773    1.8239 C   0  0  0  0  0  0  0  0  0  0  0  0
   -0.8625   -2.1998    1.1533 O   0  0  0  0  0  0  0  0  0  0  0  0
    0.2203   -0.6690    2.4879 O   0  0  0  0  0  0  0  0  0  0  0  0
    1.4445   -1.3895    2.3292 C   0  0  0  0  0  0  0  0  0  0  0  0
    2.2464   -0.7315    1.3336 N   0  0  0  0  0  0  0  0  0  0  0  0
    2.7973    0.5006    1.4979 C   0  0  0  0  0  0  0  0  0  0  0  0
    2.7017    1.2681    2.4375 O   0  0  0  0  0  0  0  0  0  0  0  0
    3.6128    0.7515    0.3088 C   0  0  0  0  0  0  0  0  0  0  0  0
    3.5987   -0.3546   -0.4395 C   0  0  0  0  0  0  0  0  0  0  0  0
    4.3182   -0.5242   -1.7239 C   0  0  0  0  0  0  0  0  0  0  0  0
    4.8101    0.8380   -2.2512 C   0  0  0  0  0  0  0  0  0  0  0  0
    5.3927    1.7208   -1.1341 C   0  0  0  0  0  0  0  0  0  0  0  0
    4.3796    1.9815   -0.0028 C   0  0  0  0  0  0  0  0  0  0  0  0
    2.7702   -1.3505    0.2438 C   0  0  0  0  0  0  0  0  0  0  0  0
    2.6607   -2.5081   -0.1120 O   0  0  0  0  0  0  0  0  0  0  0  0
   -2.3281    0.7790    0.9529 C   0  0  0  0  0  0  0  0  0  0  0  0
   -1.5353    0.7971   -0.3383 C   0  0  0  0  0  0  0  0  0  0  0  0
   -2.6689    2.1600    1.4583 C   0  0  0  0  0  0  0  0  0  0  0  0
  1  2  1  0
  2  3  1  0
  2  4  2  3
  5  4  1  6
  5  6  1  0
  6  7  1  6
  7  8  2  0
  7  9  1  0
  9 10  1  0
 10 11  1  0
 11 12  1  0
 12 13  2  0
 12 14  1  0
 14 15  2  0
 15 16  1  0
 16 17  1  0
 17 18  1  0
 18 19  1  0
 15 20  1  0
 20 21  2  0
  6 22  1  0
 22 23  1  0
 22 24  1  0
 22  5  1  0
 20 11  1  0
 19 14  1  0
M  END
