
     RDKit          3D

 23 24  0  0  0  0  0  0  0  0999 V2000
    5.8305   -0.5414    0.2075 F   0  0  0  0  0  0  0  0  0  0  0  0
    4.5219   -0.3508   -0.1053 C   0  0  0  0  0  0  0  0  0  0  0  0
    4.4937    0.1699   -1.3617 F   0  0  0  0  0  0  0  0  0  0  0  0
    3.8327    0.5824    0.9011 C   0  0  0  0  0  0  0  0  0  0  0  0
    4.5247    1.7438    1.0246 F   0  0  0  0  0  0  0  0  0  0  0  0
    3.8077    0.0144    2.1354 F   0  0  0  0  0  0  0  0  0  0  0  0
    2.4918    0.9549    0.5736 O   0  0  0  0  0  0  0  0  0  0  0  0
    1.5761   -0.1330    0.5638 C   0  0  0  0  0  0  0  0  0  0  0  0
    0.1300    0.4025    0.5291 C   0  0  1  0  0  0  0  0  0  0  0  0
   -0.0846    1.3741   -0.6514 C   0  0  0  0  0  0  0  0  0  0  0  0
   -1.4015    1.9776   -0.6526 N   0  0  0  0  0  0  0  0  0  0  0  0
   -2.4339    1.7325   -1.5023 C   0  0  0  0  0  0  0  0  0  0  0  0
   -3.4610    2.4797   -1.1701 N   0  0  0  0  0  0  0  0  0  0  0  0
   -2.9930    3.1821   -0.0956 C   0  0  0  0  0  0  0  0  0  0  0  0
   -1.7326    2.9125    0.2543 N   0  0  0  0  0  0  0  0  0  0  0  0
   -0.8527   -0.7696    0.5364 C   0  0  0  0  0  0  0  0  0  0  0  0
   -0.9674   -1.5933   -0.6025 C   0  0  0  0  0  0  0  0  0  0  0  0
   -1.8632   -2.6648   -0.6298 C   0  0  0  0  0  0  0  0  0  0  0  0
   -2.6537   -2.9351    0.4818 C   0  0  0  0  0  0  0  0  0  0  0  0
   -3.7525   -4.2574    0.4457 Cl  0  0  0  0  0  0  0  0  0  0  0  0
   -2.5527   -2.1485    1.6232 C   0  0  0  0  0  0  0  0  0  0  0  0
   -1.6560   -1.0753    1.6541 C   0  0  0  0  0  0  0  0  0  0  0  0
   -1.5755   -0.1754    3.1268 Cl  0  0  0  0  0  0  0  0  0  0  0  0
  1  2  1  0
  2  3  1  0
  2  4  1  0
  4  5  1  0
  4  6  1  0
  4  7  1  0
  7  8  1  0
  9  8  1  6
  9 10  1  0
 10 11  1  0
 11 12  1  0
 12 13  2  0
 13 14  1  0
 14 15  2  0
  9 16  1  0
 16 17  2  0
 17 18  1  0
 18 19  2  0
 19 20  1  0
 19 21  1  0
 21 22  2  0
 22 23  1  0
 15 11  1  0
 22 16  1  0
M  END
