
     RDKit          3D

 24 26  0  0  0  0  0  0  0  0999 V2000
   -4.1474    1.4172    3.0821 C   0  0  0  0  0  0  0  0  0  0  0  0
   -3.7706    0.5959    1.8799 C   0  0  0  0  0  0  0  0  0  0  0  0
   -4.4182   -0.7593    1.8117 C   0  0  0  0  0  0  0  0  0  0  0  0
   -2.9155    1.0656    0.9501 C   0  0  0  0  0  0  0  0  0  0  0  0
   -2.4532    0.3712   -0.2600 C   0  0  2  0  0  0  0  0  0  0  0  0
   -2.0890    1.1908   -1.4823 C   0  0  1  0  0  0  0  0  0  0  0  0
   -0.8951    0.8616   -2.2931 C   0  0  0  0  0  0  0  0  0  0  0  0
   -0.9120    0.8949   -3.5144 O   0  0  0  0  0  0  0  0  0  0  0  0
    0.1776    0.5662   -1.5191 O   0  0  0  0  0  0  0  0  0  0  0  0
    1.3335    0.2447   -2.2879 C   0  0  0  0  0  0  0  0  0  0  0  0
    2.4008   -0.0481   -1.3722 N   0  0  0  0  0  0  0  0  0  0  0  0
    2.6325   -1.2714   -0.8311 C   0  0  0  0  0  0  0  0  0  0  0  0
    2.0461   -2.3194   -1.0271 O   0  0  0  0  0  0  0  0  0  0  0  0
    3.7749   -1.1151    0.0724 C   0  0  0  0  0  0  0  0  0  0  0  0
    4.1540    0.1651    0.0377 C   0  0  0  0  0  0  0  0  0  0  0  0
    5.2891    0.7387    0.7980 C   0  0  0  0  0  0  0  0  0  0  0  0
    6.1731   -0.3800    1.3784 C   0  0  0  0  0  0  0  0  0  0  0  0
    5.3491   -1.5480    1.9465 C   0  0  0  0  0  0  0  0  0  0  0  0
    4.4069   -2.1694    0.8992 C   0  0  0  0  0  0  0  0  0  0  0  0
    3.2690    0.8759   -0.8875 C   0  0  0  0  0  0  0  0  0  0  0  0
    3.3434    2.0644   -1.1356 O   0  0  0  0  0  0  0  0  0  0  0  0
   -3.3250    0.3019   -1.5031 C   0  0  0  0  0  0  0  0  0  0  0  0
   -3.3024   -0.9955   -2.2759 C   0  0  0  0  0  0  0  0  0  0  0  0
   -4.6648    0.9969   -1.5483 C   0  0  0  0  0  0  0  0  0  0  0  0
  1  2  1  0
  2  3  1  0
  2  4  2  3
  5  4  1  1
  5  6  1  0
  6  7  1  6
  7  8  2  0
  7  9  1  0
  9 10  1  0
 10 11  1  0
 11 12  1  0
 12 13  2  0
 12 14  1  0
 14 15  2  0
 15 16  1  0
 16 17  1  0
 17 18  1  0
 18 19  1  0
 15 20  1  0
 20 21  2  0
  6 22  1  0
 22 23  1  0
 22 24  1  0
 22  5  1  0
 20 11  1  0
 19 14  1  0
M  END
