
     RDKit          3D

 23 24  0  0  0  0  0  0  0  0999 V2000
    3.4824    0.6763    1.8301 F   0  0  0  0  0  0  0  0  0  0  0  0
    3.7917    0.8166    0.5110 C   0  0  0  0  0  0  0  0  0  0  0  0
    5.1038    0.4837    0.3880 F   0  0  0  0  0  0  0  0  0  0  0  0
    2.9056   -0.0796   -0.3575 C   0  0  0  0  0  0  0  0  0  0  0  0
    3.2252    0.0644   -1.6683 F   0  0  0  0  0  0  0  0  0  0  0  0
    3.0640   -1.3886   -0.0422 F   0  0  0  0  0  0  0  0  0  0  0  0
    1.5168    0.2357   -0.1998 O   0  0  0  0  0  0  0  0  0  0  0  0
    0.7133   -0.4735   -1.1445 C   0  0  0  0  0  0  0  0  0  0  0  0
   -0.7948   -0.2756   -0.8554 C   0  0  2  0  0  0  0  0  0  0  0  0
   -1.1485    1.1633   -0.4346 C   0  0  0  0  0  0  0  0  0  0  0  0
   -0.6281    2.1816   -1.3189 N   0  0  0  0  0  0  0  0  0  0  0  0
    0.1566    3.2427   -0.9916 C   0  0  0  0  0  0  0  0  0  0  0  0
    0.4564    3.9167   -2.0774 N   0  0  0  0  0  0  0  0  0  0  0  0
   -0.2011    3.2270   -3.0569 C   0  0  0  0  0  0  0  0  0  0  0  0
   -0.8757    2.1517   -2.6401 N   0  0  0  0  0  0  0  0  0  0  0  0
   -1.3615   -1.2533    0.1820 C   0  0  0  0  0  0  0  0  0  0  0  0
   -0.6032   -1.6228    1.3098 C   0  0  0  0  0  0  0  0  0  0  0  0
   -1.1138   -2.5020    2.2691 C   0  0  0  0  0  0  0  0  0  0  0  0
   -2.3959   -3.0185    2.1239 C   0  0  0  0  0  0  0  0  0  0  0  0
   -3.0224   -4.0976    3.3073 Cl  0  0  0  0  0  0  0  0  0  0  0  0
   -3.1764   -2.6593    1.0317 C   0  0  0  0  0  0  0  0  0  0  0  0
   -2.6666   -1.7797    0.0709 C   0  0  0  0  0  0  0  0  0  0  0  0
   -3.7205   -1.3616   -1.2352 Cl  0  0  0  0  0  0  0  0  0  0  0  0
  1  2  1  0
  2  3  1  0
  2  4  1  0
  4  5  1  0
  4  6  1  0
  4  7  1  0
  7  8  1  0
  9  8  1  1
  9 10  1  0
 10 11  1  0
 11 12  1  0
 12 13  2  0
 13 14  1  0
 14 15  2  0
  9 16  1  0
 16 17  2  0
 17 18  1  0
 18 19  2  0
 19 20  1  0
 19 21  1  0
 21 22  2  0
 22 23  1  0
 15 11  1  0
 22 16  1  0
M  END
