
     RDKit          3D

 20 21  0  0  0  0  0  0  0  0999 V2000
   -0.9428   -2.8477    0.5533 C   0  0  0  0  0  0  0  0  0  0  0  0
   -1.1890   -1.4162    0.0207 C   0  0  0  0  0  0  0  0  0  0  0  0
   -0.7385   -1.3819   -1.4519 C   0  0  0  0  0  0  0  0  0  0  0  0
   -2.7069   -1.1717    0.0631 C   0  0  0  0  0  0  0  0  0  0  0  0
   -0.3610   -0.3943    0.8841 C   0  0  2  0  0  0  0  0  0  0  0  0
   -0.7004   -0.4902    2.2678 O   0  0  0  0  0  0  0  0  0  0  0  0
   -0.3782    1.0769    0.4632 C   0  0  0  0  0  0  0  0  0  0  0  0
    0.6501    1.6292   -0.2329 C   0  0  0  0  0  0  0  0  0  0  0  0
    1.9041    0.9919   -0.6457 C   0  0  0  0  0  0  0  0  0  0  0  0
    2.1377    0.7321   -2.0003 C   0  0  0  0  0  0  0  0  0  0  0  0
    3.3348    0.1377   -2.4062 C   0  0  0  0  0  0  0  0  0  0  0  0
    4.3035   -0.1854   -1.4582 C   0  0  0  0  0  0  0  0  0  0  0  0
    5.7757   -0.9219   -1.9572 Cl  0  0  0  0  0  0  0  0  0  0  0  0
    4.0892    0.0874   -0.1087 C   0  0  0  0  0  0  0  0  0  0  0  0
    2.8920    0.6816    0.2968 C   0  0  0  0  0  0  0  0  0  0  0  0
   -1.4766    1.9141    0.8167 N   0  0  0  0  0  0  0  0  0  0  0  0
   -2.5301    1.6668    1.6881 C   0  0  0  0  0  0  0  0  0  0  0  0
   -3.3732    2.6712    1.7454 N   0  0  0  0  0  0  0  0  0  0  0  0
   -2.8066    3.5724    0.9128 C   0  0  0  0  0  0  0  0  0  0  0  0
   -1.6712    3.1907    0.3365 N   0  0  0  0  0  0  0  0  0  0  0  0
  1  2  1  0
  2  3  1  0
  2  4  1  0
  2  5  1  0
  5  6  1  1
  5  7  1  0
  7  8  2  0
  8  9  1  0
  9 10  2  0
 10 11  1  0
 11 12  2  0
 12 13  1  0
 12 14  1  0
 14 15  2  0
  7 16  1  0
 16 17  1  0
 17 18  2  0
 18 19  1  0
 19 20  2  0
 15  9  1  0
 20 16  1  0
M  END
