
     RDKit          3D

 26 28  0  0  0  0  0  0  0  0999 V2000
   -4.8717   -0.0691    1.4826 C   0  0  0  0  0  0  0  0  0  0  0  0
   -3.4805    0.1324    0.9315 C   0  0  0  0  0  0  0  0  0  0  0  0
   -2.7668   -1.1711    0.6496 C   0  0  0  0  0  0  0  0  0  0  0  0
   -3.2585    1.3390    0.0327 C   0  0  2  0  0  0  0  0  0  0  0  0
   -2.3892    1.2399   -1.1527 C   0  0  0  0  0  0  0  0  0  0  0  0
   -2.6971    0.7111   -2.3472 C   0  0  0  0  0  0  0  0  0  0  0  0
   -4.2467    0.0267   -2.6781 Cl  0  0  0  0  0  0  0  0  0  0  0  0
   -1.5321    0.7026   -3.6235 Cl  0  0  0  0  0  0  0  0  0  0  0  0
   -2.6987    1.3355    1.4434 C   0  0  2  0  0  0  0  0  0  0  0  0
   -1.2436    1.3056    1.7186 C   0  0  0  0  0  0  0  0  0  0  0  0
   -0.4905    2.1602    1.2766 O   0  0  0  0  0  0  0  0  0  0  0  0
   -0.9029    0.2704    2.5256 O   0  0  0  0  0  0  0  0  0  0  0  0
    0.5026    0.0872    2.7265 C   0  0  0  0  0  0  0  0  0  0  0  0
    1.0027   -0.9412    1.7447 C   0  0  0  0  0  0  0  0  0  0  0  0
    0.9600   -2.3072    2.0583 C   0  0  0  0  0  0  0  0  0  0  0  0
    1.3647   -3.2617    1.1234 C   0  0  0  0  0  0  0  0  0  0  0  0
    1.8111   -2.8604   -0.1349 C   0  0  0  0  0  0  0  0  0  0  0  0
    1.8667   -1.5045   -0.4550 C   0  0  0  0  0  0  0  0  0  0  0  0
    2.2674   -1.1878   -1.7340 O   0  0  0  0  0  0  0  0  0  0  0  0
    3.0827   -0.0910   -1.8873 C   0  0  0  0  0  0  0  0  0  0  0  0
    2.7111    0.8564   -2.8407 C   0  0  0  0  0  0  0  0  0  0  0  0
    3.5184    1.9726   -3.0600 C   0  0  0  0  0  0  0  0  0  0  0  0
    4.7028    2.1293   -2.3385 C   0  0  0  0  0  0  0  0  0  0  0  0
    5.0856    1.1669   -1.4029 C   0  0  0  0  0  0  0  0  0  0  0  0
    4.2795    0.0501   -1.1806 C   0  0  0  0  0  0  0  0  0  0  0  0
    1.4494   -0.5473    0.4742 C   0  0  0  0  0  0  0  0  0  0  0  0
  1  2  1  0
  2  3  1  0
  2  4  1  0
  4  5  1  6
  5  6  2  3
  6  7  1  0
  6  8  1  0
  4  9  1  0
  9 10  1  6
 10 11  2  0
 10 12  1  0
 12 13  1  0
 13 14  1  0
 14 15  2  0
 15 16  1  0
 16 17  2  0
 17 18  1  0
 18 19  1  0
 19 20  1  0
 20 21  2  0
 21 22  1  0
 22 23  2  0
 23 24  1  0
 24 25  2  0
 18 26  2  0
  9  2  1  0
 26 14  1  0
 25 20  1  0
M  END
