
     RDKit          3D

 27 28  0  0  0  0  0  0  0  0999 V2000
    5.0278   -3.2323   -1.9863 C   0  0  0  0  0  0  0  0  0  0  0  0
    3.8342   -2.4447   -1.4704 C   0  0  0  0  0  0  0  0  0  0  0  0
    3.7820   -1.0445   -2.0872 C   0  0  0  0  0  0  0  0  0  0  0  0
    2.6228   -0.1972   -1.5468 C   0  0  0  0  0  0  0  0  0  0  0  0
    3.0178    0.8169   -0.4442 C   0  0  2  0  0  0  0  0  0  0  0  0
    3.5842    0.1128    0.8060 C   0  0  0  0  0  0  0  0  0  0  0  0
    3.9190    1.0539    1.9551 C   0  0  0  0  0  0  0  0  0  0  0  0
    1.8085    1.7146   -0.1156 C   0  0  0  0  0  0  0  0  0  0  0  0
    0.7803    0.9252    0.4960 O   0  0  0  0  0  0  0  0  0  0  0  0
   -0.2675    1.6412    0.9750 C   0  0  0  0  0  0  0  0  0  0  0  0
   -0.3977    2.8540    0.9395 O   0  0  0  0  0  0  0  0  0  0  0  0
   -1.2498    0.7099    1.5654 C   0  0  0  0  0  0  0  0  0  0  0  0
   -0.8192    0.0440    2.7469 C   0  0  0  0  0  0  0  0  0  0  0  0
   -0.4553   -0.5024    3.7057 N   0  0  0  0  0  0  0  0  0  0  0  0
   -2.4562    0.5180    0.9779 C   0  0  0  0  0  0  0  0  0  0  0  0
   -3.4577   -0.3779    1.6155 C   0  0  0  0  0  0  0  0  0  0  0  0
   -3.8442   -1.5636    0.9736 C   0  0  0  0  0  0  0  0  0  0  0  0
   -4.7959   -2.4023    1.5560 C   0  0  0  0  0  0  0  0  0  0  0  0
   -5.3742   -2.0615    2.7770 C   0  0  0  0  0  0  0  0  0  0  0  0
   -5.0100   -0.8773    3.4140 C   0  0  0  0  0  0  0  0  0  0  0  0
   -4.0584   -0.0357    2.8347 C   0  0  0  0  0  0  0  0  0  0  0  0
   -2.7598    1.1779   -0.3189 C   0  0  0  0  0  0  0  0  0  0  0  0
   -3.6464    2.2608   -0.3614 C   0  0  0  0  0  0  0  0  0  0  0  0
   -3.9449    2.8752   -1.5788 C   0  0  0  0  0  0  0  0  0  0  0  0
   -3.3647    2.4093   -2.7589 C   0  0  0  0  0  0  0  0  0  0  0  0
   -2.4855    1.3278   -2.7255 C   0  0  0  0  0  0  0  0  0  0  0  0
   -2.1837    0.7113   -1.5104 C   0  0  0  0  0  0  0  0  0  0  0  0
  1  2  1  0
  2  3  1  0
  3  4  1  0
  5  4  1  6
  5  6  1  0
  6  7  1  0
  5  8  1  0
  8  9  1  0
  9 10  1  0
 10 11  2  0
 10 12  1  0
 12 13  1  0
 13 14  3  0
 12 15  2  3
 15 16  1  0
 16 17  2  0
 17 18  1  0
 18 19  2  0
 19 20  1  0
 20 21  2  0
 15 22  1  0
 22 23  2  0
 23 24  1  0
 24 25  2  0
 25 26  1  0
 26 27  2  0
 21 16  1  0
 27 22  1  0
M  END
