
     RDKit          3D

 26 28  0  0  0  0  0  0  0  0999 V2000
   -2.9183   -1.1234   -0.2752 C   0  0  0  0  0  0  0  0  0  0  0  0
   -3.8295    0.0799   -0.3965 C   0  0  0  0  0  0  0  0  0  0  0  0
   -5.1845   -0.2639   -0.9662 C   0  0  0  0  0  0  0  0  0  0  0  0
   -3.2463    1.4424   -0.7547 C   0  0  2  0  0  0  0  0  0  0  0  0
   -1.8110    1.6268   -1.0724 C   0  0  0  0  0  0  0  0  0  0  0  0
   -1.1083    2.4213   -0.4651 O   0  0  0  0  0  0  0  0  0  0  0  0
   -1.4332    0.8485   -2.1180 O   0  0  0  0  0  0  0  0  0  0  0  0
   -0.0355    0.8737   -2.4246 C   0  0  0  0  0  0  0  0  0  0  0  0
    0.6380   -0.2715   -1.7146 C   0  0  0  0  0  0  0  0  0  0  0  0
    0.5634   -1.5734   -2.2339 C   0  0  0  0  0  0  0  0  0  0  0  0
    1.1298   -2.6482   -1.5440 C   0  0  0  0  0  0  0  0  0  0  0  0
    1.7817   -2.4317   -0.3330 C   0  0  0  0  0  0  0  0  0  0  0  0
    1.8759   -1.1382    0.1776 C   0  0  0  0  0  0  0  0  0  0  0  0
    2.4977   -0.9628    1.3904 O   0  0  0  0  0  0  0  0  0  0  0  0
    3.6894   -0.2676    1.4082 C   0  0  0  0  0  0  0  0  0  0  0  0
    4.5440   -0.1218    0.3106 C   0  0  0  0  0  0  0  0  0  0  0  0
    5.7476    0.5722    0.4513 C   0  0  0  0  0  0  0  0  0  0  0  0
    6.1063    1.1112    1.6887 C   0  0  0  0  0  0  0  0  0  0  0  0
    5.2623    0.9577    2.7880 C   0  0  0  0  0  0  0  0  0  0  0  0
    4.0571    0.2661    2.6475 C   0  0  0  0  0  0  0  0  0  0  0  0
    1.2870   -0.0630   -0.4892 C   0  0  0  0  0  0  0  0  0  0  0  0
   -3.7698    1.1881    0.6445 C   0  0  2  0  0  0  0  0  0  0  0  0
   -2.8796    1.0684    1.8114 C   0  0  0  0  0  0  0  0  0  0  0  0
   -3.1139    0.3888    2.9443 C   0  0  0  0  0  0  0  0  0  0  0  0
   -4.5744   -0.4942    3.2013 Cl  0  0  0  0  0  0  0  0  0  0  0  0
   -1.9438    0.3770    4.2130 Cl  0  0  0  0  0  0  0  0  0  0  0  0
  1  2  1  0
  2  3  1  0
  2  4  1  0
  4  5  1  1
  5  6  2  0
  5  7  1  0
  7  8  1  0
  8  9  1  0
  9 10  2  0
 10 11  1  0
 11 12  2  0
 12 13  1  0
 13 14  1  0
 14 15  1  0
 15 16  2  0
 16 17  1  0
 17 18  2  0
 18 19  1  0
 19 20  2  0
 13 21  2  0
  4 22  1  0
 22 23  1  1
 23 24  2  3
 24 25  1  0
 24 26  1  0
 22  2  1  0
 21  9  1  0
 20 15  1  0
M  END
