
     RDKit          3D

 26 28  0  0  0  0  0  0  0  0999 V2000
   -3.4496    0.7303   -2.1334 C   0  0  0  0  0  0  0  0  0  0  0  0
   -3.2684    0.1256   -0.7617 C   0  0  0  0  0  0  0  0  0  0  0  0
   -2.5353   -1.1960   -0.7885 C   0  0  0  0  0  0  0  0  0  0  0  0
   -4.3157    0.3133    0.3253 C   0  0  2  0  0  0  0  0  0  0  0  0
   -5.5789    1.0080    0.0288 C   0  0  0  0  0  0  0  0  0  0  0  0
   -6.2166    1.9166    0.7829 C   0  0  0  0  0  0  0  0  0  0  0  0
   -5.5994    2.4535    2.3016 Cl  0  0  0  0  0  0  0  0  0  0  0  0
   -7.7128    2.5949    0.2448 Cl  0  0  0  0  0  0  0  0  0  0  0  0
   -3.0190    1.0959    0.3859 C   0  0  1  0  0  0  0  0  0  0  0  0
   -2.0060    0.7891    1.4238 C   0  0  0  0  0  0  0  0  0  0  0  0
   -2.2778    0.1842    2.4499 O   0  0  0  0  0  0  0  0  0  0  0  0
   -0.7836    1.2378    1.0460 O   0  0  0  0  0  0  0  0  0  0  0  0
    0.2950    0.8648    1.9086 C   0  0  0  0  0  0  0  0  0  0  0  0
    0.9211   -0.4052    1.3936 C   0  0  0  0  0  0  0  0  0  0  0  0
    0.6007   -1.6426    1.9697 C   0  0  0  0  0  0  0  0  0  0  0  0
    1.1450   -2.8235    1.4616 C   0  0  0  0  0  0  0  0  0  0  0  0
    2.0171   -2.7786    0.3750 C   0  0  0  0  0  0  0  0  0  0  0  0
    2.3514   -1.5523   -0.1976 C   0  0  0  0  0  0  0  0  0  0  0  0
    3.1852   -1.5824   -1.2931 O   0  0  0  0  0  0  0  0  0  0  0  0
    4.1925   -0.6459   -1.3416 C   0  0  0  0  0  0  0  0  0  0  0  0
    5.0728   -0.4356   -0.2777 C   0  0  0  0  0  0  0  0  0  0  0  0
    6.0918    0.5092   -0.3992 C   0  0  0  0  0  0  0  0  0  0  0  0
    6.2381    1.2297   -1.5852 C   0  0  0  0  0  0  0  0  0  0  0  0
    5.3712    1.0016   -2.6546 C   0  0  0  0  0  0  0  0  0  0  0  0
    4.3529    0.0560   -2.5363 C   0  0  0  0  0  0  0  0  0  0  0  0
    1.7890   -0.3704    0.2927 C   0  0  0  0  0  0  0  0  0  0  0  0
  1  2  1  0
  2  3  1  0
  2  4  1  0
  4  5  1  6
  5  6  2  3
  6  7  1  0
  6  8  1  0
  4  9  1  0
  9 10  1  1
 10 11  2  0
 10 12  1  0
 12 13  1  0
 13 14  1  0
 14 15  2  0
 15 16  1  0
 16 17  2  0
 17 18  1  0
 18 19  1  0
 19 20  1  0
 20 21  2  0
 21 22  1  0
 22 23  2  0
 23 24  1  0
 24 25  2  0
 18 26  2  0
  9  2  1  0
 26 14  1  0
 25 20  1  0
M  END
