
     RDKit          3D

 25 27  0  0  0  0  0  0  0  0999 V2000
   -4.6382   -0.7352   -0.8248 C   0  0  0  0  0  0  0  0  0  0  0  0
   -4.0819    0.5346   -0.1576 C   0  0  0  0  0  0  0  0  0  0  0  0
   -5.2711    1.2597    0.5170 C   0  0  0  0  0  0  0  0  0  0  0  0
   -3.5268    1.4652   -1.2538 C   0  0  0  0  0  0  0  0  0  0  0  0
   -3.0023    0.2142    0.9299 C   0  0  2  0  0  0  0  0  0  0  0  0
   -2.6614    1.4625    1.5868 O   0  0  0  0  0  0  0  0  0  0  0  0
   -1.6765   -0.4440    0.4550 C   0  0  1  0  0  0  0  0  0  0  0  0
   -0.7639   -0.4151    1.5875 O   0  0  0  0  0  0  0  0  0  0  0  0
    0.5224   -0.1474    1.2109 C   0  0  0  0  0  0  0  0  0  0  0  0
    0.8976    1.1171    0.7667 C   0  0  0  0  0  0  0  0  0  0  0  0
    2.2275    1.3545    0.4091 C   0  0  0  0  0  0  0  0  0  0  0  0
    3.1979    0.3408    0.5061 C   0  0  0  0  0  0  0  0  0  0  0  0
    4.5975    0.5925    0.1249 C   0  0  0  0  0  0  0  0  0  0  0  0
    5.3147    1.6714    0.6687 C   0  0  0  0  0  0  0  0  0  0  0  0
    6.6432    1.9103    0.3062 C   0  0  0  0  0  0  0  0  0  0  0  0
    7.2776    1.0736   -0.6087 C   0  0  0  0  0  0  0  0  0  0  0  0
    6.5855   -0.0018   -1.1591 C   0  0  0  0  0  0  0  0  0  0  0  0
    5.2576   -0.2403   -0.7946 C   0  0  0  0  0  0  0  0  0  0  0  0
    2.7944   -0.9176    0.9857 C   0  0  0  0  0  0  0  0  0  0  0  0
    1.4666   -1.1594    1.3458 C   0  0  0  0  0  0  0  0  0  0  0  0
   -1.7956   -1.8299    0.0353 N   0  0  0  0  0  0  0  0  0  0  0  0
   -1.2204   -2.4003   -1.0610 C   0  0  0  0  0  0  0  0  0  0  0  0
   -1.5291   -3.6755   -1.1078 N   0  0  0  0  0  0  0  0  0  0  0  0
   -2.2866   -3.8500    0.0151 C   0  0  0  0  0  0  0  0  0  0  0  0
   -2.4774   -2.7515    0.7507 N   0  0  0  0  0  0  0  0  0  0  0  0
  1  2  1  0
  2  3  1  0
  2  4  1  0
  2  5  1  0
  5  6  1  6
  5  7  1  0
  7  8  1  1
  8  9  1  0
  9 10  2  0
 10 11  1  0
 11 12  2  0
 12 13  1  0
 13 14  2  0
 14 15  1  0
 15 16  2  0
 16 17  1  0
 17 18  2  0
 12 19  1  0
 19 20  2  0
  7 21  1  0
 21 22  1  0
 22 23  2  0
 23 24  1  0
 24 25  2  0
 20  9  1  0
 25 21  1  0
 18 13  1  0
M  END
