
     RDKit          3D

 14 14  0  0  0  0  0  0  0  0999 V2000
   -4.4542    1.1229    0.5696 C   0  0  0  0  0  0  0  0  0  0  0  0
   -3.2391    1.3759   -0.2999 C   0  0  0  0  0  0  0  0  0  0  0  0
   -2.0760    1.2306    0.4999 O   0  0  0  0  0  0  0  0  0  0  0  0
   -0.6134    0.9890   -0.1843 P   0  0  2  0  0  5  0  0  0  0  0  0
   -0.2758    2.2200   -1.6728 S   0  0  0  0  0  0  0  0  0  0  0  0
   -0.7851   -0.7455   -0.7381 C   0  0  0  0  0  0  0  0  0  0  0  0
   -1.2772   -1.7227    0.3134 C   0  0  0  0  0  0  0  0  0  0  0  0
    0.7396    0.9736    1.4555 S   0  0  0  0  0  0  0  0  0  0  0  0
    2.1604    0.2863    0.6395 C   0  0  0  0  0  0  0  0  0  0  0  0
    2.5164   -1.0463    0.8725 C   0  0  0  0  0  0  0  0  0  0  0  0
    3.6327   -1.5999    0.2419 C   0  0  0  0  0  0  0  0  0  0  0  0
    4.4075   -0.8201   -0.6141 C   0  0  0  0  0  0  0  0  0  0  0  0
    4.0734    0.5152   -0.8307 C   0  0  0  0  0  0  0  0  0  0  0  0
    2.9581    1.0694   -0.1987 C   0  0  0  0  0  0  0  0  0  0  0  0
  1  2  1  0
  2  3  1  0
  3  4  1  0
  4  5  2  0
  4  6  1  6
  6  7  1  0
  4  8  1  0
  8  9  1  0
  9 10  2  0
 10 11  1  0
 11 12  2  0
 12 13  1  0
 13 14  2  0
 14  9  1  0
M  END
