
     RDKit          3D

 26 28  0  0  0  0  0  0  0  0999 V2000
   -4.7675   -1.7189   -1.4999 C   0  0  0  0  0  0  0  0  0  0  0  0
   -4.2773   -1.3843   -0.1100 C   0  0  0  0  0  0  0  0  0  0  0  0
   -4.5234   -2.4946    0.8845 C   0  0  0  0  0  0  0  0  0  0  0  0
   -4.3301    0.0431    0.4166 C   0  0  2  0  0  0  0  0  0  0  0  0
   -4.9309    1.1226   -0.3832 C   0  0  0  0  0  0  0  0  0  0  0  0
   -4.4783    2.3768   -0.5374 C   0  0  0  0  0  0  0  0  0  0  0  0
   -5.3518    3.5025   -1.5151 Cl  0  0  0  0  0  0  0  0  0  0  0  0
   -3.0281    2.9323    0.2156 Cl  0  0  0  0  0  0  0  0  0  0  0  0
   -3.0056   -0.5532   -0.0181 C   0  0  1  0  0  0  0  0  0  0  0  0
   -1.9470   -0.8249    0.9880 C   0  0  0  0  0  0  0  0  0  0  0  0
   -2.1483   -0.7820    2.1930 O   0  0  0  0  0  0  0  0  0  0  0  0
   -0.7709   -1.1211    0.3796 O   0  0  0  0  0  0  0  0  0  0  0  0
    0.3412   -1.3171    1.2584 C   0  0  0  0  0  0  0  0  0  0  0  0
    1.1034   -0.0251    1.3955 C   0  0  0  0  0  0  0  0  0  0  0  0
    0.8609    0.8323    2.4784 C   0  0  0  0  0  0  0  0  0  0  0  0
    1.5368    2.0490    2.5856 C   0  0  0  0  0  0  0  0  0  0  0  0
    2.4634    2.4201    1.6127 C   0  0  0  0  0  0  0  0  0  0  0  0
    2.7202    1.5698    0.5382 C   0  0  0  0  0  0  0  0  0  0  0  0
    3.6167    2.0131   -0.4080 O   0  0  0  0  0  0  0  0  0  0  0  0
    4.5596    1.1157   -0.8558 C   0  0  0  0  0  0  0  0  0  0  0  0
    4.7911    1.0754   -2.2311 C   0  0  0  0  0  0  0  0  0  0  0  0
    5.7550    0.2103   -2.7493 C   0  0  0  0  0  0  0  0  0  0  0  0
    6.4967   -0.6016   -1.8904 C   0  0  0  0  0  0  0  0  0  0  0  0
    6.2820   -0.5432   -0.5126 C   0  0  0  0  0  0  0  0  0  0  0  0
    5.3184    0.3219    0.0080 C   0  0  0  0  0  0  0  0  0  0  0  0
    2.0270    0.3622    0.4139 C   0  0  0  0  0  0  0  0  0  0  0  0
  1  2  1  0
  2  3  1  0
  2  4  1  0
  4  5  1  6
  5  6  2  3
  6  7  1  0
  6  8  1  0
  4  9  1  0
  9 10  1  1
 10 11  2  0
 10 12  1  0
 12 13  1  0
 13 14  1  0
 14 15  2  0
 15 16  1  0
 16 17  2  0
 17 18  1  0
 18 19  1  0
 19 20  1  0
 20 21  2  0
 21 22  1  0
 22 23  2  0
 23 24  1  0
 24 25  2  0
 18 26  2  0
  9  2  1  0
 26 14  1  0
 25 20  1  0
M  END
