
     RDKit          3D

 24 26  0  0  0  0  0  0  0  0999 V2000
   -2.8723   -1.6733   -1.8399 C   0  0  0  0  0  0  0  0  0  0  0  0
   -3.2366   -1.0333   -0.5273 C   0  0  0  0  0  0  0  0  0  0  0  0
   -4.6583   -1.2498   -0.0911 C   0  0  0  0  0  0  0  0  0  0  0  0
   -2.3316   -0.3247    0.1764 C   0  0  0  0  0  0  0  0  0  0  0  0
   -2.5379    0.3472    1.4682 C   0  0  1  0  0  0  0  0  0  0  0  0
   -1.7905    1.6066    1.8601 C   0  0  1  0  0  0  0  0  0  0  0  0
   -0.7652    2.2467    1.0061 C   0  0  0  0  0  0  0  0  0  0  0  0
   -0.8573    3.4013    0.6167 O   0  0  0  0  0  0  0  0  0  0  0  0
    0.2832    1.4168    0.7831 O   0  0  0  0  0  0  0  0  0  0  0  0
    1.2626    1.9879   -0.0796 C   0  0  0  0  0  0  0  0  0  0  0  0
    2.2485    0.9775   -0.3443 N   0  0  0  0  0  0  0  0  0  0  0  0
    2.1069    0.0014   -1.2770 C   0  0  0  0  0  0  0  0  0  0  0  0
    1.1935   -0.1846   -2.0594 O   0  0  0  0  0  0  0  0  0  0  0  0
    3.2991   -0.8428   -1.1755 C   0  0  0  0  0  0  0  0  0  0  0  0
    4.0648   -0.3586   -0.1951 C   0  0  0  0  0  0  0  0  0  0  0  0
    5.3659   -0.9257    0.2287 C   0  0  0  0  0  0  0  0  0  0  0  0
    5.8741   -1.9496   -0.8021 C   0  0  0  0  0  0  0  0  0  0  0  0
    4.7498   -2.8529   -1.3362 C   0  0  0  0  0  0  0  0  0  0  0  0
    3.6059   -2.0485   -1.9795 C   0  0  0  0  0  0  0  0  0  0  0  0
    3.3965    0.8198    0.3616 C   0  0  0  0  0  0  0  0  0  0  0  0
    3.8314    1.4917    1.2780 O   0  0  0  0  0  0  0  0  0  0  0  0
   -3.2763    1.6755    1.5335 C   0  0  0  0  0  0  0  0  0  0  0  0
   -3.7303    2.3641    0.2659 C   0  0  0  0  0  0  0  0  0  0  0  0
   -4.2276    1.8803    2.6876 C   0  0  0  0  0  0  0  0  0  0  0  0
  1  2  1  0
  2  3  1  0
  2  4  2  3
  5  4  1  6
  5  6  1  0
  6  7  1  6
  7  8  2  0
  7  9  1  0
  9 10  1  0
 10 11  1  0
 11 12  1  0
 12 13  2  0
 12 14  1  0
 14 15  2  0
 15 16  1  0
 16 17  1  0
 17 18  1  0
 18 19  1  0
 15 20  1  0
 20 21  2  0
  6 22  1  0
 22 23  1  0
 22 24  1  0
 22  5  1  0
 20 11  1  0
 19 14  1  0
M  END
