
     RDKit          3D

 24 26  0  0  0  0  0  0  0  0999 V2000
    2.7230    1.9659    1.5364 C   0  0  0  0  0  0  0  0  0  0  0  0
    3.1727    1.1685    0.3436 C   0  0  0  0  0  0  0  0  0  0  0  0
    4.6160    1.3516   -0.0339 C   0  0  0  0  0  0  0  0  0  0  0  0
    2.3206    0.3556   -0.3108 C   0  0  0  0  0  0  0  0  0  0  0  0
    2.6158   -0.4879   -1.4787 C   0  0  2  0  0  0  0  0  0  0  0  0
    1.9162   -1.8103   -1.7234 C   0  0  2  0  0  0  0  0  0  0  0  0
    0.8560   -2.3510   -0.8436 C   0  0  0  0  0  0  0  0  0  0  0  0
    0.9514   -3.4324   -0.2825 O   0  0  0  0  0  0  0  0  0  0  0  0
   -0.2234   -1.5321   -0.8040 O   0  0  0  0  0  0  0  0  0  0  0  0
   -1.2278   -1.9918    0.0952 C   0  0  0  0  0  0  0  0  0  0  0  0
   -2.2416   -0.9772    0.1681 N   0  0  0  0  0  0  0  0  0  0  0  0
   -2.1482    0.1361    0.9385 C   0  0  0  0  0  0  0  0  0  0  0  0
   -1.2652    0.4632    1.7092 O   0  0  0  0  0  0  0  0  0  0  0  0
   -3.3501    0.9274    0.6681 C   0  0  0  0  0  0  0  0  0  0  0  0
   -4.0820    0.2710   -0.2349 C   0  0  0  0  0  0  0  0  0  0  0  0
   -5.3644    0.7491   -0.8007 C   0  0  0  0  0  0  0  0  0  0  0  0
   -5.5924    2.2315   -0.4560 C   0  0  0  0  0  0  0  0  0  0  0  0
   -5.1854    2.5699    0.9878 C   0  0  0  0  0  0  0  0  0  0  0  0
   -3.7136    2.2275    1.2776 C   0  0  0  0  0  0  0  0  0  0  0  0
   -3.3713   -0.9619   -0.5837 C   0  0  0  0  0  0  0  0  0  0  0  0
   -3.7632   -1.7773   -1.3964 O   0  0  0  0  0  0  0  0  0  0  0  0
    3.3811   -1.7918   -1.3086 C   0  0  0  0  0  0  0  0  0  0  0  0
    4.4015   -2.1392   -2.3663 C   0  0  0  0  0  0  0  0  0  0  0  0
    3.7713   -2.2783    0.0697 C   0  0  0  0  0  0  0  0  0  0  0  0
  1  2  1  0
  2  3  1  0
  2  4  2  3
  5  4  1  1
  5  6  1  0
  6  7  1  1
  7  8  2  0
  7  9  1  0
  9 10  1  0
 10 11  1  0
 11 12  1  0
 12 13  2  0
 12 14  1  0
 14 15  2  0
 15 16  1  0
 16 17  1  0
 17 18  1  0
 18 19  1  0
 15 20  1  0
 20 21  2  0
  6 22  1  0
 22 23  1  0
 22 24  1  0
 22  5  1  0
 20 11  1  0
 19 14  1  0
M  END
