
     RDKit          3D

 21 22  0  0  0  0  0  0  0  0999 V2000
   -2.0328   -1.5940   -0.7270 C   0  0  0  0  0  0  0  0  0  0  0  0
   -1.9162   -0.8646    0.6235 C   0  0  0  0  0  0  0  0  0  0  0  0
   -2.0419   -1.9219    1.7482 C   0  0  0  0  0  0  0  0  0  0  0  0
   -3.1105    0.0935    0.7754 C   0  0  0  0  0  0  0  0  0  0  0  0
   -0.5195   -0.1674    0.7640 C   0  0  2  0  0  0  0  0  0  0  0  0
   -0.4211    0.4999    2.0298 O   0  0  0  0  0  0  0  0  0  0  0  0
   -0.0240    0.7538   -0.3917 C   0  0  2  0  0  0  0  0  0  0  0  0
    1.4373    1.2227   -0.1862 C   0  0  0  0  0  0  0  0  0  0  0  0
    2.4672    0.1190   -0.3156 C   0  0  0  0  0  0  0  0  0  0  0  0
    3.0189   -0.4286    0.8559 C   0  0  0  0  0  0  0  0  0  0  0  0
    3.9650   -1.4529    0.7883 C   0  0  0  0  0  0  0  0  0  0  0  0
    4.3706   -1.9387   -0.4512 C   0  0  0  0  0  0  0  0  0  0  0  0
    5.5351   -3.2021   -0.5335 Cl  0  0  0  0  0  0  0  0  0  0  0  0
    3.8391   -1.4115   -1.6246 C   0  0  0  0  0  0  0  0  0  0  0  0
    2.8915   -0.3873   -1.5568 C   0  0  0  0  0  0  0  0  0  0  0  0
    2.2672    0.2245   -3.0478 Cl  0  0  0  0  0  0  0  0  0  0  0  0
   -0.8550    1.9353   -0.5806 N   0  0  0  0  0  0  0  0  0  0  0  0
   -1.3629    2.4167   -1.7471 C   0  0  0  0  0  0  0  0  0  0  0  0
   -2.0169    3.5301   -1.5112 N   0  0  0  0  0  0  0  0  0  0  0  0
   -1.8641    3.7018   -0.1652 C   0  0  0  0  0  0  0  0  0  0  0  0
   -1.1565    2.7506    0.4529 N   0  0  0  0  0  0  0  0  0  0  0  0
  1  2  1  0
  2  3  1  0
  2  4  1  0
  2  5  1  0
  5  6  1  1
  5  7  1  0
  7  8  1  1
  8  9  1  0
  9 10  2  0
 10 11  1  0
 11 12  2  0
 12 13  1  0
 12 14  1  0
 14 15  2  0
 15 16  1  0
  7 17  1  0
 17 18  1  0
 18 19  2  0
 19 20  1  0
 20 21  2  0
 15  9  1  0
 21 17  1  0
M  END
