
     RDKit          3D

 26 28  0  0  0  0  0  0  0  0999 V2000
   -4.4343   -1.7495   -2.0441 C   0  0  0  0  0  0  0  0  0  0  0  0
   -4.0865   -0.6749   -1.0422 C   0  0  0  0  0  0  0  0  0  0  0  0
   -3.3316   -1.2105    0.1547 C   0  0  0  0  0  0  0  0  0  0  0  0
   -3.7551    0.7070   -1.5845 C   0  0  2  0  0  0  0  0  0  0  0  0
   -2.6921    1.5661   -1.0190 C   0  0  0  0  0  0  0  0  0  0  0  0
   -2.9021    2.7259   -0.6966 O   0  0  0  0  0  0  0  0  0  0  0  0
   -1.4934    0.9358   -0.9876 O   0  0  0  0  0  0  0  0  0  0  0  0
   -0.4379    1.7481   -0.4730 C   0  0  0  0  0  0  0  0  0  0  0  0
    0.8635    1.0206   -0.6856 C   0  0  0  0  0  0  0  0  0  0  0  0
    1.4755    1.0223   -1.9485 C   0  0  0  0  0  0  0  0  0  0  0  0
    2.6801    0.3470   -2.1564 C   0  0  0  0  0  0  0  0  0  0  0  0
    3.2891   -0.3314   -1.1037 C   0  0  0  0  0  0  0  0  0  0  0  0
    2.6922   -0.3266    0.1579 C   0  0  0  0  0  0  0  0  0  0  0  0
    3.2423   -1.0011    1.2231 O   0  0  0  0  0  0  0  0  0  0  0  0
    4.5423   -0.6916    1.5541 C   0  0  0  0  0  0  0  0  0  0  0  0
    5.3687   -1.7566    1.9165 C   0  0  0  0  0  0  0  0  0  0  0  0
    6.6916   -1.5165    2.2937 C   0  0  0  0  0  0  0  0  0  0  0  0
    7.1824   -0.2110    2.3225 C   0  0  0  0  0  0  0  0  0  0  0  0
    6.3511    0.8564    1.9829 C   0  0  0  0  0  0  0  0  0  0  0  0
    5.0271    0.6190    1.6055 C   0  0  0  0  0  0  0  0  0  0  0  0
    1.4727    0.3198    0.3635 C   0  0  0  0  0  0  0  0  0  0  0  0
   -5.0768    0.4690   -0.8839 C   0  0  2  0  0  0  0  0  0  0  0  0
   -5.3748    1.0094    0.4530 C   0  0  0  0  0  0  0  0  0  0  0  0
   -6.1976    0.4860    1.3735 C   0  0  0  0  0  0  0  0  0  0  0  0
   -7.0647   -0.9801    1.1015 Cl  0  0  0  0  0  0  0  0  0  0  0  0
   -6.4178    1.2752    2.8935 Cl  0  0  0  0  0  0  0  0  0  0  0  0
  1  2  1  0
  2  3  1  0
  2  4  1  0
  4  5  1  1
  5  6  2  0
  5  7  1  0
  7  8  1  0
  8  9  1  0
  9 10  2  0
 10 11  1  0
 11 12  2  0
 12 13  1  0
 13 14  1  0
 14 15  1  0
 15 16  2  0
 16 17  1  0
 17 18  2  0
 18 19  1  0
 19 20  2  0
 13 21  2  0
  4 22  1  0
 22 23  1  1
 23 24  2  3
 24 25  1  0
 24 26  1  0
 22  2  1  0
 21  9  1  0
 20 15  1  0
M  END
