
     RDKit          3D

 22 23  0  0  0  0  0  0  0  0999 V2000
    4.7584    2.9586    0.5143 C   0  0  0  0  0  0  0  0  0  0  0  0
    3.8644    1.8476    0.5777 O   0  0  0  0  0  0  0  0  0  0  0  0
    4.4851    0.6346    0.6776 C   0  0  0  0  0  0  0  0  0  0  0  0
    5.6990    0.4853    0.7583 O   0  0  0  0  0  0  0  0  0  0  0  0
    3.4529   -0.4960    0.7457 C   0  0  2  0  0  0  0  0  0  0  0  0
    4.1393   -1.8421    0.5339 C   0  0  0  0  0  0  0  0  0  0  0  0
    2.4884   -0.2957   -0.2899 O   0  0  0  0  0  0  0  0  0  0  0  0
    1.1911   -0.6577   -0.0642 C   0  0  0  0  0  0  0  0  0  0  0  0
    0.7243   -1.4549    0.9811 C   0  0  0  0  0  0  0  0  0  0  0  0
   -0.6391   -1.7531    1.0815 C   0  0  0  0  0  0  0  0  0  0  0  0
   -1.5398   -1.2488    0.1441 C   0  0  0  0  0  0  0  0  0  0  0  0
   -2.8594   -1.6091    0.2947 O   0  0  0  0  0  0  0  0  0  0  0  0
   -3.8045   -0.6270    0.0950 C   0  0  0  0  0  0  0  0  0  0  0  0
   -3.7640    0.5645    0.8293 C   0  0  0  0  0  0  0  0  0  0  0  0
   -4.7550    1.5297    0.6427 C   0  0  0  0  0  0  0  0  0  0  0  0
   -5.7895    1.2950   -0.2632 C   0  0  0  0  0  0  0  0  0  0  0  0
   -7.0087    2.4879   -0.4892 Cl  0  0  0  0  0  0  0  0  0  0  0  0
   -5.8490    0.1024   -0.9822 C   0  0  0  0  0  0  0  0  0  0  0  0
   -4.8581   -0.8629   -0.7961 C   0  0  0  0  0  0  0  0  0  0  0  0
   -4.9591   -2.3313   -1.6974 Cl  0  0  0  0  0  0  0  0  0  0  0  0
   -1.0763   -0.4798   -0.9227 C   0  0  0  0  0  0  0  0  0  0  0  0
    0.2854   -0.1841   -1.0188 C   0  0  0  0  0  0  0  0  0  0  0  0
  1  2  1  0
  2  3  1  0
  3  4  2  0
  3  5  1  0
  5  6  1  6
  5  7  1  0
  7  8  1  0
  8  9  2  0
  9 10  1  0
 10 11  2  0
 11 12  1  0
 12 13  1  0
 13 14  2  0
 14 15  1  0
 15 16  2  0
 16 17  1  0
 16 18  1  0
 18 19  2  0
 19 20  1  0
 11 21  1  0
 21 22  2  0
 22  8  1  0
 19 13  1  0
M  END
