
     RDKit          3D

 26 28  0  0  0  0  0  0  0  0999 V2000
   -3.6002    0.7623   -0.8063 C   0  0  0  0  0  0  0  0  0  0  0  0
   -4.2310    0.4699    0.5371 C   0  0  0  0  0  0  0  0  0  0  0  0
   -5.0199    1.6355    1.0839 C   0  0  0  0  0  0  0  0  0  0  0  0
   -3.4974   -0.4117    1.5392 C   0  0  2  0  0  0  0  0  0  0  0  0
   -2.1530   -0.9790    1.2850 C   0  0  0  0  0  0  0  0  0  0  0  0
   -1.9165   -2.1697    1.4105 O   0  0  0  0  0  0  0  0  0  0  0  0
   -1.2499   -0.0137    0.9814 O   0  0  0  0  0  0  0  0  0  0  0  0
    0.0665   -0.5238    0.7484 C   0  0  0  0  0  0  0  0  0  0  0  0
    1.0242    0.6145    0.4890 C   0  0  0  0  0  0  0  0  0  0  0  0
    0.9276    1.8279    1.1889 C   0  0  0  0  0  0  0  0  0  0  0  0
    1.8444    2.8604    0.9609 C   0  0  0  0  0  0  0  0  0  0  0  0
    2.8798    2.6844    0.0445 C   0  0  0  0  0  0  0  0  0  0  0  0
    3.0077    1.4698   -0.6272 C   0  0  0  0  0  0  0  0  0  0  0  0
    4.0377    1.3521   -1.5346 O   0  0  0  0  0  0  0  0  0  0  0  0
    4.8484    0.2458   -1.4016 C   0  0  0  0  0  0  0  0  0  0  0  0
    5.4528   -0.0946   -0.1862 C   0  0  0  0  0  0  0  0  0  0  0  0
    6.3003   -1.2025   -0.1219 C   0  0  0  0  0  0  0  0  0  0  0  0
    6.5525   -1.9563   -1.2684 C   0  0  0  0  0  0  0  0  0  0  0  0
    5.9569   -1.6057   -2.4824 C   0  0  0  0  0  0  0  0  0  0  0  0
    5.1104   -0.4982   -2.5520 C   0  0  0  0  0  0  0  0  0  0  0  0
    2.0789    0.4435   -0.4211 C   0  0  0  0  0  0  0  0  0  0  0  0
   -4.7514   -0.9229    0.8582 C   0  0  2  0  0  0  0  0  0  0  0  0
   -4.7235   -1.9828   -0.1630 C   0  0  0  0  0  0  0  0  0  0  0  0
   -5.6033   -2.1738   -1.1607 C   0  0  0  0  0  0  0  0  0  0  0  0
   -5.4148   -3.5036   -2.2468 Cl  0  0  0  0  0  0  0  0  0  0  0  0
   -6.9593   -1.1334   -1.4016 Cl  0  0  0  0  0  0  0  0  0  0  0  0
  1  2  1  0
  2  3  1  0
  2  4  1  0
  4  5  1  6
  5  6  2  0
  5  7  1  0
  7  8  1  0
  8  9  1  0
  9 10  2  0
 10 11  1  0
 11 12  2  0
 12 13  1  0
 13 14  1  0
 14 15  1  0
 15 16  2  0
 16 17  1  0
 17 18  2  0
 18 19  1  0
 19 20  2  0
 13 21  2  0
  4 22  1  0
 22 23  1  6
 23 24  2  3
 24 25  1  0
 24 26  1  0
 22  2  1  0
 21  9  1  0
 20 15  1  0
M  END
