
     RDKit          3D

 22 23  0  0  0  0  0  0  0  0999 V2000
   -5.5160    1.6187   -1.3678 C   0  0  0  0  0  0  0  0  0  0  0  0
   -4.3660    0.9824   -0.8082 O   0  0  0  0  0  0  0  0  0  0  0  0
   -4.5935   -0.2888   -0.3599 C   0  0  0  0  0  0  0  0  0  0  0  0
   -5.6851   -0.8434   -0.3848 O   0  0  0  0  0  0  0  0  0  0  0  0
   -3.3093   -0.8872    0.2191 C   0  0  1  0  0  0  0  0  0  0  0  0
   -3.5244   -2.3500    0.5987 C   0  0  0  0  0  0  0  0  0  0  0  0
   -2.2714   -0.8371   -0.7710 O   0  0  0  0  0  0  0  0  0  0  0  0
   -1.1010   -0.3370   -0.2720 C   0  0  0  0  0  0  0  0  0  0  0  0
   -0.9647    1.0186    0.0231 C   0  0  0  0  0  0  0  0  0  0  0  0
    0.2565    1.5010    0.4965 C   0  0  0  0  0  0  0  0  0  0  0  0
    1.3424    0.6332    0.6395 C   0  0  0  0  0  0  0  0  0  0  0  0
    2.5037    1.1809    1.1382 O   0  0  0  0  0  0  0  0  0  0  0  0
    3.6897    0.7532    0.5840 C   0  0  0  0  0  0  0  0  0  0  0  0
    3.9284    0.8990   -0.7875 C   0  0  0  0  0  0  0  0  0  0  0  0
    5.1515    0.4940   -1.3267 C   0  0  0  0  0  0  0  0  0  0  0  0
    6.1348   -0.0388   -0.4929 C   0  0  0  0  0  0  0  0  0  0  0  0
    7.6398   -0.5392   -1.1624 Cl  0  0  0  0  0  0  0  0  0  0  0  0
    5.9132   -0.1656    0.8776 C   0  0  0  0  0  0  0  0  0  0  0  0
    4.6905    0.2387    1.4173 C   0  0  0  0  0  0  0  0  0  0  0  0
    4.4437    0.0709    3.1188 Cl  0  0  0  0  0  0  0  0  0  0  0  0
    1.2016   -0.7249    0.3380 C   0  0  0  0  0  0  0  0  0  0  0  0
   -0.0211   -1.2067   -0.1333 C   0  0  0  0  0  0  0  0  0  0  0  0
  1  2  1  0
  2  3  1  0
  3  4  2  0
  3  5  1  0
  5  6  1  6
  5  7  1  0
  7  8  1  0
  8  9  2  0
  9 10  1  0
 10 11  2  0
 11 12  1  0
 12 13  1  0
 13 14  2  0
 14 15  1  0
 15 16  2  0
 16 17  1  0
 16 18  1  0
 18 19  2  0
 19 20  1  0
 11 21  1  0
 21 22  2  0
 22  8  1  0
 19 13  1  0
M  END
