
     RDKit          3D

 26 28  0  0  0  0  0  0  0  0999 V2000
   -4.9452    1.3483   -0.3762 C   0  0  0  0  0  0  0  0  0  0  0  0
   -4.5331    0.3089   -1.3952 C   0  0  0  0  0  0  0  0  0  0  0  0
   -5.5195    0.1753   -2.5306 C   0  0  0  0  0  0  0  0  0  0  0  0
   -3.7915   -0.9488   -0.9694 C   0  0  2  0  0  0  0  0  0  0  0  0
   -3.5503   -1.2310    0.4550 C   0  0  0  0  0  0  0  0  0  0  0  0
   -4.4309   -1.6897    1.3581 C   0  0  0  0  0  0  0  0  0  0  0  0
   -3.9331   -1.9738    2.9884 Cl  0  0  0  0  0  0  0  0  0  0  0  0
   -6.0748   -2.0263    0.9558 Cl  0  0  0  0  0  0  0  0  0  0  0  0
   -3.0552    0.1381   -1.7278 C   0  0  2  0  0  0  0  0  0  0  0  0
   -2.0258    1.0259   -1.1377 C   0  0  0  0  0  0  0  0  0  0  0  0
   -2.0910    2.2432   -1.2203 O   0  0  0  0  0  0  0  0  0  0  0  0
   -1.0203    0.3192   -0.5680 O   0  0  0  0  0  0  0  0  0  0  0  0
   -0.0207    1.1330    0.0477 C   0  0  0  0  0  0  0  0  0  0  0  0
    0.8520    0.2258    0.8749 C   0  0  0  0  0  0  0  0  0  0  0  0
    0.4160   -0.2217    2.1318 C   0  0  0  0  0  0  0  0  0  0  0  0
    1.2020   -1.0935    2.8875 C   0  0  0  0  0  0  0  0  0  0  0  0
    2.4340   -1.5231    2.3975 C   0  0  0  0  0  0  0  0  0  0  0  0
    2.8835   -1.0699    1.1584 C   0  0  0  0  0  0  0  0  0  0  0  0
    4.0944   -1.5517    0.7140 O   0  0  0  0  0  0  0  0  0  0  0  0
    4.9881   -0.6271    0.2211 C   0  0  0  0  0  0  0  0  0  0  0  0
    5.3223    0.5378    0.9168 C   0  0  0  0  0  0  0  0  0  0  0  0
    6.2601    1.4206    0.3792 C   0  0  0  0  0  0  0  0  0  0  0  0
    6.8715    1.1317   -0.8416 C   0  0  0  0  0  0  0  0  0  0  0  0
    6.5532   -0.0442   -1.5230 C   0  0  0  0  0  0  0  0  0  0  0  0
    5.6164   -0.9289   -0.9874 C   0  0  0  0  0  0  0  0  0  0  0  0
    2.0881   -0.2179    0.3858 C   0  0  0  0  0  0  0  0  0  0  0  0
  1  2  1  0
  2  3  1  0
  2  4  1  0
  4  5  1  1
  5  6  2  3
  6  7  1  0
  6  8  1  0
  4  9  1  0
  9 10  1  1
 10 11  2  0
 10 12  1  0
 12 13  1  0
 13 14  1  0
 14 15  2  0
 15 16  1  0
 16 17  2  0
 17 18  1  0
 18 19  1  0
 19 20  1  0
 20 21  2  0
 21 22  1  0
 22 23  2  0
 23 24  1  0
 24 25  2  0
 18 26  2  0
  9  2  1  0
 26 14  1  0
 25 20  1  0
M  END
