
     RDKit          3D

 25 27  0  0  0  0  0  0  0  0999 V2000
   -4.9852   -0.3442    1.9936 C   0  0  0  0  0  0  0  0  0  0  0  0
   -4.0233   -0.3203    0.7783 C   0  0  0  0  0  0  0  0  0  0  0  0
   -3.5902   -1.7708    0.5042 C   0  0  0  0  0  0  0  0  0  0  0  0
   -4.8391    0.1832   -0.4273 C   0  0  0  0  0  0  0  0  0  0  0  0
   -2.8257    0.6406    1.1043 C   0  0  1  0  0  0  0  0  0  0  0  0
   -2.3086    0.3153    2.4170 O   0  0  0  0  0  0  0  0  0  0  0  0
   -1.6016    0.7439    0.1506 C   0  0  1  0  0  0  0  0  0  0  0  0
   -0.9647   -0.5474    0.0366 O   0  0  0  0  0  0  0  0  0  0  0  0
    0.4000   -0.4672    0.0476 C   0  0  0  0  0  0  0  0  0  0  0  0
    1.0996   -0.1451    1.2077 C   0  0  0  0  0  0  0  0  0  0  0  0
    2.4966   -0.1095    1.1836 C   0  0  0  0  0  0  0  0  0  0  0  0
    3.2101   -0.4113    0.0103 C   0  0  0  0  0  0  0  0  0  0  0  0
    4.6810   -0.3759   -0.0098 C   0  0  0  0  0  0  0  0  0  0  0  0
    5.4261   -1.4984   -0.4089 C   0  0  0  0  0  0  0  0  0  0  0  0
    6.8232   -1.4670   -0.4253 C   0  0  0  0  0  0  0  0  0  0  0  0
    7.4989   -0.3104   -0.0442 C   0  0  0  0  0  0  0  0  0  0  0  0
    6.7793    0.8140    0.3533 C   0  0  0  0  0  0  0  0  0  0  0  0
    5.3822    0.7804    0.3710 C   0  0  0  0  0  0  0  0  0  0  0  0
    2.4789   -0.7581   -1.1384 C   0  0  0  0  0  0  0  0  0  0  0  0
    1.0825   -0.7946   -1.1184 C   0  0  0  0  0  0  0  0  0  0  0  0
   -1.9063    1.3012   -1.1614 N   0  0  0  0  0  0  0  0  0  0  0  0
   -2.1212    2.6197   -1.4415 C   0  0  0  0  0  0  0  0  0  0  0  0
   -2.3324    2.7714   -2.7275 N   0  0  0  0  0  0  0  0  0  0  0  0
   -2.2126    1.5003   -3.2102 C   0  0  0  0  0  0  0  0  0  0  0  0
   -1.9517    0.5653   -2.2941 N   0  0  0  0  0  0  0  0  0  0  0  0
  1  2  1  0
  2  3  1  0
  2  4  1  0
  2  5  1  0
  5  6  1  1
  5  7  1  0
  7  8  1  6
  8  9  1  0
  9 10  2  0
 10 11  1  0
 11 12  2  0
 12 13  1  0
 13 14  2  0
 14 15  1  0
 15 16  2  0
 16 17  1  0
 17 18  2  0
 12 19  1  0
 19 20  2  0
  7 21  1  0
 21 22  1  0
 22 23  2  0
 23 24  1  0
 24 25  2  0
 20  9  1  0
 25 21  1  0
 18 13  1  0
M  END
