
     RDKit          3D

 25 27  0  0  0  0  0  0  0  0999 V2000
   -2.8650    0.0884    2.3849 C   0  0  0  0  0  0  0  0  0  0  0  0
   -3.7103    0.5439    1.1807 C   0  0  0  0  0  0  0  0  0  0  0  0
   -4.6838   -0.5868    0.8044 C   0  0  0  0  0  0  0  0  0  0  0  0
   -4.5628    1.7553    1.6310 C   0  0  0  0  0  0  0  0  0  0  0  0
   -2.7968    0.9929   -0.0090 C   0  0  2  0  0  0  0  0  0  0  0  0
   -3.6117    1.4912   -1.0854 O   0  0  0  0  0  0  0  0  0  0  0  0
   -1.7054   -0.0097   -0.5003 C   0  0  2  0  0  0  0  0  0  0  0  0
   -0.8043    0.6898   -1.3911 O   0  0  0  0  0  0  0  0  0  0  0  0
    0.5027    0.5749   -1.0076 C   0  0  0  0  0  0  0  0  0  0  0  0
    0.9745    1.1613    0.1637 C   0  0  0  0  0  0  0  0  0  0  0  0
    2.3224    1.0248    0.5084 C   0  0  0  0  0  0  0  0  0  0  0  0
    3.2160    0.3208   -0.3181 C   0  0  0  0  0  0  0  0  0  0  0  0
    4.6339    0.1789    0.0503 C   0  0  0  0  0  0  0  0  0  0  0  0
    5.6550    0.5802   -0.8285 C   0  0  0  0  0  0  0  0  0  0  0  0
    7.0013    0.4484   -0.4770 C   0  0  0  0  0  0  0  0  0  0  0  0
    7.3492   -0.0901    0.7597 C   0  0  0  0  0  0  0  0  0  0  0  0
    6.3529   -0.4965    1.6448 C   0  0  0  0  0  0  0  0  0  0  0  0
    5.0071   -0.3618    1.2928 C   0  0  0  0  0  0  0  0  0  0  0  0
    2.7187   -0.2318   -1.5111 C   0  0  0  0  0  0  0  0  0  0  0  0
    1.3721   -0.0984   -1.8597 C   0  0  0  0  0  0  0  0  0  0  0  0
   -2.2101   -1.1602   -1.2361 N   0  0  0  0  0  0  0  0  0  0  0  0
   -1.7387   -2.4373   -1.1788 C   0  0  0  0  0  0  0  0  0  0  0  0
   -2.4328   -3.2005   -1.9904 N   0  0  0  0  0  0  0  0  0  0  0  0
   -3.3198   -2.3281   -2.5525 C   0  0  0  0  0  0  0  0  0  0  0  0
   -3.2280   -1.0649   -2.1243 N   0  0  0  0  0  0  0  0  0  0  0  0
  1  2  1  0
  2  3  1  0
  2  4  1  0
  2  5  1  0
  5  6  1  6
  5  7  1  0
  7  8  1  6
  8  9  1  0
  9 10  2  0
 10 11  1  0
 11 12  2  0
 12 13  1  0
 13 14  2  0
 14 15  1  0
 15 16  2  0
 16 17  1  0
 17 18  2  0
 12 19  1  0
 19 20  2  0
  7 21  1  0
 21 22  1  0
 22 23  2  0
 23 24  1  0
 24 25  2  0
 20  9  1  0
 25 21  1  0
 18 13  1  0
M  END
