
     RDKit          3D

 18 18  0  0  0  0  0  0  0  0999 V2000
   -3.7360    2.0140    1.0092 C   0  0  0  0  0  0  0  0  0  0  0  0
   -3.6863    0.5278    1.3277 C   0  0  0  0  0  0  0  0  0  0  0  0
   -3.7744   -0.3667    0.0888 C   0  0  0  0  0  0  0  0  0  0  0  0
   -2.6671   -0.1690   -0.9534 C   0  0  0  0  0  0  0  0  0  0  0  0
   -1.2223   -0.3521   -0.4446 C   0  0  1  0  0  0  0  0  0  0  0  0
   -0.9568   -1.7208    0.2208 C   0  0  0  0  0  0  0  0  0  0  0  0
   -1.1564   -2.9297   -0.6826 C   0  0  0  0  0  0  0  0  0  0  0  0
   -0.2394   -0.0586   -1.5959 C   0  0  0  0  0  0  0  0  0  0  0  0
    1.1245   -0.2054   -1.1694 O   0  0  0  0  0  0  0  0  0  0  0  0
    1.6774    0.8765   -0.5715 C   0  0  0  0  0  0  0  0  0  0  0  0
    1.1309    1.9534   -0.3742 O   0  0  0  0  0  0  0  0  0  0  0  0
    3.0772    0.6116   -0.1533 C   0  0  0  0  0  0  0  0  0  0  0  0
    3.6871   -0.6336   -0.3737 C   0  0  0  0  0  0  0  0  0  0  0  0
    5.0062   -0.8552    0.0319 C   0  0  0  0  0  0  0  0  0  0  0  0
    5.7248    0.1614    0.6593 C   0  0  0  0  0  0  0  0  0  0  0  0
    5.1279    1.4014    0.8835 C   0  0  0  0  0  0  0  0  0  0  0  0
    3.8121    1.6254    0.4803 C   0  0  0  0  0  0  0  0  0  0  0  0
    3.3104    2.8733    0.7438 O   0  0  0  0  0  0  0  0  0  0  0  0
  1  2  1  0
  2  3  1  0
  3  4  1  0
  5  4  1  6
  5  6  1  0
  6  7  1  0
  5  8  1  0
  8  9  1  0
  9 10  1  0
 10 11  2  0
 10 12  1  0
 12 13  2  0
 13 14  1  0
 14 15  2  0
 15 16  1  0
 16 17  2  0
 17 18  1  0
 17 12  1  0
M  END
