
     RDKit          3D

 22 24  0  0  0  0  0  0  0  0999 V2000
   -3.1883   -0.7635    0.4894 C   0  0  0  0  0  0  0  0  0  0  0  0
   -1.9736   -1.0222   -0.4166 C   0  0  0  0  0  0  0  0  0  0  0  0
   -2.3073   -0.5001   -1.8295 C   0  0  0  0  0  0  0  0  0  0  0  0
   -1.7231   -2.5419   -0.4756 C   0  0  0  0  0  0  0  0  0  0  0  0
   -0.2727   -2.7115   -0.9092 C   0  0  0  0  0  0  0  0  0  0  0  0
    0.4344   -1.3618   -0.6588 C   0  0  2  0  0  0  0  0  0  0  0  0
    1.8034   -1.6108    0.0058 C   0  0  0  0  0  0  0  0  0  0  0  0
    2.7098   -0.4058    0.0622 C   0  0  0  0  0  0  0  0  0  0  0  0
    3.2651    0.1275   -1.1098 C   0  0  0  0  0  0  0  0  0  0  0  0
    4.0998    1.2456   -1.0512 C   0  0  0  0  0  0  0  0  0  0  0  0
    4.3862    1.8327    0.1795 C   0  0  0  0  0  0  0  0  0  0  0  0
    5.4103    3.2133    0.2488 Cl  0  0  0  0  0  0  0  0  0  0  0  0
    3.8482    1.3096    1.3526 C   0  0  0  0  0  0  0  0  0  0  0  0
    3.0149    0.1906    1.2943 C   0  0  0  0  0  0  0  0  0  0  0  0
   -0.6008   -0.4979    0.1342 C   0  0  2  0  0  0  0  0  0  0  0  0
   -0.4737   -0.8543    1.5210 O   0  0  0  0  0  0  0  0  0  0  0  0
   -0.3226    1.0138   -0.0513 C   0  0  0  0  0  0  0  0  0  0  0  0
   -1.2587    1.8926    0.6180 N   0  0  0  0  0  0  0  0  0  0  0  0
   -1.9436    2.9426    0.0938 C   0  0  0  0  0  0  0  0  0  0  0  0
   -2.6537    3.5159    1.0376 N   0  0  0  0  0  0  0  0  0  0  0  0
   -2.3469    2.7796    2.1463 C   0  0  0  0  0  0  0  0  0  0  0  0
   -1.4945    1.7703    1.9413 N   0  0  0  0  0  0  0  0  0  0  0  0
  1  2  1  0
  2  3  1  0
  2  4  1  0
  4  5  1  0
  5  6  1  0
  6  7  1  1
  7  8  1  0
  8  9  2  0
  9 10  1  0
 10 11  2  0
 11 12  1  0
 11 13  1  0
 13 14  2  0
  6 15  1  0
 15 16  1  1
 15 17  1  0
 17 18  1  0
 18 19  1  0
 19 20  2  0
 20 21  1  0
 21 22  2  0
 15  2  1  0
 22 18  1  0
 14  8  1  0
M  END
