
     RDKit          3D

 20 21  0  0  0  0  0  0  0  0999 V2000
   -3.9980   -0.5130   -0.5672 C   0  0  0  0  0  0  0  0  0  0  0  0
   -2.5913   -0.5879    0.0697 C   0  0  0  0  0  0  0  0  0  0  0  0
   -2.7470   -0.2770    1.5738 C   0  0  0  0  0  0  0  0  0  0  0  0
   -2.0754   -2.0290   -0.0785 C   0  0  0  0  0  0  0  0  0  0  0  0
   -1.6524    0.4709   -0.6083 C   0  0  2  0  0  0  0  0  0  0  0  0
   -1.6789    0.3731   -2.0407 O   0  0  0  0  0  0  0  0  0  0  0  0
   -0.1735    0.4913   -0.1205 C   0  0  1  0  0  0  0  0  0  0  0  0
    0.7866   -0.3400   -1.0009 C   0  0  0  0  0  0  0  0  0  0  0  0
    2.1235   -0.6072   -0.3428 C   0  0  0  0  0  0  0  0  0  0  0  0
    3.2241    0.2220   -0.6023 C   0  0  0  0  0  0  0  0  0  0  0  0
    4.4517   -0.0155    0.0200 C   0  0  0  0  0  0  0  0  0  0  0  0
    4.5849   -1.0824    0.9047 C   0  0  0  0  0  0  0  0  0  0  0  0
    6.0976   -1.3765    1.6700 Cl  0  0  0  0  0  0  0  0  0  0  0  0
    3.5003   -1.9137    1.1738 C   0  0  0  0  0  0  0  0  0  0  0  0
    2.2717   -1.6761    0.5532 C   0  0  0  0  0  0  0  0  0  0  0  0
    0.2828    1.8810   -0.0295 N   0  0  0  0  0  0  0  0  0  0  0  0
    0.4271    2.7933   -1.0309 C   0  0  0  0  0  0  0  0  0  0  0  0
    0.8649    3.9265   -0.5329 N   0  0  0  0  0  0  0  0  0  0  0  0
    0.9472    3.6615    0.8042 C   0  0  0  0  0  0  0  0  0  0  0  0
    0.5846    2.4279    1.1647 N   0  0  0  0  0  0  0  0  0  0  0  0
  1  2  1  0
  2  3  1  0
  2  4  1  0
  2  5  1  0
  5  6  1  6
  5  7  1  0
  7  8  1  6
  8  9  1  0
  9 10  2  0
 10 11  1  0
 11 12  2  0
 12 13  1  0
 12 14  1  0
 14 15  2  0
  7 16  1  0
 16 17  1  0
 17 18  2  0
 18 19  1  0
 19 20  2  0
 15  9  1  0
 20 16  1  0
M  END
