
     RDKit          3D

 22 23  0  0  0  0  0  0  0  0999 V2000
   -5.0731   -0.5462   -2.5419 C   0  0  0  0  0  0  0  0  0  0  0  0
   -4.6526    0.1513   -1.3685 O   0  0  0  0  0  0  0  0  0  0  0  0
   -3.7636   -0.5451   -0.5966 C   0  0  0  0  0  0  0  0  0  0  0  0
   -3.3475   -1.6655   -0.8627 O   0  0  0  0  0  0  0  0  0  0  0  0
   -3.3673    0.2934    0.6245 C   0  0  1  0  0  0  0  0  0  0  0  0
   -4.5652    0.4244    1.5592 C   0  0  0  0  0  0  0  0  0  0  0  0
   -2.3171   -0.3194    1.3856 O   0  0  0  0  0  0  0  0  0  0  0  0
   -1.0868    0.1331    0.9964 C   0  0  0  0  0  0  0  0  0  0  0  0
   -0.5915    1.3318    1.5078 C   0  0  0  0  0  0  0  0  0  0  0  0
    0.6777    1.7684    1.1278 C   0  0  0  0  0  0  0  0  0  0  0  0
    1.4533    0.9893    0.2663 C   0  0  0  0  0  0  0  0  0  0  0  0
    2.6841    1.4957   -0.0867 O   0  0  0  0  0  0  0  0  0  0  0  0
    3.7459    0.6180   -0.0909 C   0  0  0  0  0  0  0  0  0  0  0  0
    4.0616   -0.1316    1.0490 C   0  0  0  0  0  0  0  0  0  0  0  0
    5.1674   -0.9836    1.0364 C   0  0  0  0  0  0  0  0  0  0  0  0
    5.9619   -1.0715   -0.1067 C   0  0  0  0  0  0  0  0  0  0  0  0
    7.3245   -2.1221   -0.1166 Cl  0  0  0  0  0  0  0  0  0  0  0  0
    5.6672   -0.3128   -1.2381 C   0  0  0  0  0  0  0  0  0  0  0  0
    4.5613    0.5388   -1.2262 C   0  0  0  0  0  0  0  0  0  0  0  0
    4.2226    1.4687   -2.6404 Cl  0  0  0  0  0  0  0  0  0  0  0  0
    0.9517   -0.2125   -0.2432 C   0  0  0  0  0  0  0  0  0  0  0  0
   -0.3173   -0.6496    0.1388 C   0  0  0  0  0  0  0  0  0  0  0  0
  1  2  1  0
  2  3  1  0
  3  4  2  0
  3  5  1  0
  5  6  1  1
  5  7  1  0
  7  8  1  0
  8  9  2  0
  9 10  1  0
 10 11  2  0
 11 12  1  0
 12 13  1  0
 13 14  2  0
 14 15  1  0
 15 16  2  0
 16 17  1  0
 16 18  1  0
 18 19  2  0
 19 20  1  0
 11 21  1  0
 21 22  2  0
 22  8  1  0
 19 13  1  0
M  END
