
     RDKit          3D

 24 26  0  0  0  0  0  0  0  0999 V2000
   -6.0591    0.0864   -1.2005 C   0  0  0  0  0  0  0  0  0  0  0  0
   -5.4757   -0.3349    0.1213 C   0  0  0  0  0  0  0  0  0  0  0  0
   -6.3700   -0.0938    1.3115 C   0  0  0  0  0  0  0  0  0  0  0  0
   -4.2614   -0.9086    0.2609 C   0  0  0  0  0  0  0  0  0  0  0  0
   -3.3057   -1.2367   -0.8069 C   0  0  2  0  0  0  0  0  0  0  0  0
   -1.8086   -1.2573   -0.5942 C   0  0  2  0  0  0  0  0  0  0  0  0
   -1.0992   -0.9147    0.6587 C   0  0  0  0  0  0  0  0  0  0  0  0
   -1.5715   -1.0658    1.7770 O   0  0  0  0  0  0  0  0  0  0  0  0
    0.1442   -0.4441    0.3801 O   0  0  0  0  0  0  0  0  0  0  0  0
    0.9107   -0.1678    1.5492 C   0  0  0  0  0  0  0  0  0  0  0  0
    2.2762    0.0063    1.1382 N   0  0  0  0  0  0  0  0  0  0  0  0
    2.8338    1.1964    0.7969 C   0  0  0  0  0  0  0  0  0  0  0  0
    2.3409    2.3100    0.8164 O   0  0  0  0  0  0  0  0  0  0  0  0
    4.2069    0.9030    0.3752 C   0  0  0  0  0  0  0  0  0  0  0  0
    4.3918   -0.4180    0.4589 C   0  0  0  0  0  0  0  0  0  0  0  0
    5.6461   -1.1286    0.1119 C   0  0  0  0  0  0  0  0  0  0  0  0
    6.8082   -0.1317   -0.0617 C   0  0  0  0  0  0  0  0  0  0  0  0
    6.3817    1.1460   -0.8074 C   0  0  0  0  0  0  0  0  0  0  0  0
    5.2167    1.8748   -0.1077 C   0  0  0  0  0  0  0  0  0  0  0  0
    3.1484   -1.0180    0.9493 C   0  0  0  0  0  0  0  0  0  0  0  0
    2.9820   -2.2116    1.1287 O   0  0  0  0  0  0  0  0  0  0  0  0
   -2.4421   -0.1562   -1.4396 C   0  0  0  0  0  0  0  0  0  0  0  0
   -2.2374   -0.2199   -2.9335 C   0  0  0  0  0  0  0  0  0  0  0  0
   -2.4914    1.2615   -0.9075 C   0  0  0  0  0  0  0  0  0  0  0  0
  1  2  1  0
  2  3  1  0
  2  4  2  3
  5  4  1  1
  5  6  1  0
  6  7  1  1
  7  8  2  0
  7  9  1  0
  9 10  1  0
 10 11  1  0
 11 12  1  0
 12 13  2  0
 12 14  1  0
 14 15  2  0
 15 16  1  0
 16 17  1  0
 17 18  1  0
 18 19  1  0
 15 20  1  0
 20 21  2  0
  6 22  1  0
 22 23  1  0
 22 24  1  0
 22  5  1  0
 20 11  1  0
 19 14  1  0
M  END
