
     RDKit          3D

 26 27  0  0  0  0  0  0  0  0999 V2000
   -3.7218    1.6904   -3.3950 N   0  0  0  0  0  0  0  0  0  0  0  0
   -2.9858    1.1961   -2.6450 C   0  0  0  0  0  0  0  0  0  0  0  0
   -2.1443    0.5283   -1.6966 C   0  0  0  0  0  0  0  0  0  0  0  0
   -0.8754    0.9224   -1.5496 N   0  0  0  0  0  0  0  0  0  0  0  0
   -0.3576    0.0767   -0.6162 N   0  0  0  0  0  0  0  0  0  0  0  0
    0.9847    0.2268   -0.2005 C   0  0  0  0  0  0  0  0  0  0  0  0
    1.3042    0.3844    1.1567 C   0  0  0  0  0  0  0  0  0  0  0  0
    0.1214    0.5108    2.4137 Cl  0  0  0  0  0  0  0  0  0  0  0  0
    2.6396    0.5475    1.5498 C   0  0  0  0  0  0  0  0  0  0  0  0
    3.6724    0.5747    0.6029 C   0  0  0  0  0  0  0  0  0  0  0  0
    5.1099    0.7308    1.0371 C   0  0  0  0  0  0  0  0  0  0  0  0
    5.8962    1.3000    0.0842 F   0  0  0  0  0  0  0  0  0  0  0  0
    5.6837   -0.4645    1.3386 F   0  0  0  0  0  0  0  0  0  0  0  0
    5.2444    1.5058    2.1475 F   0  0  0  0  0  0  0  0  0  0  0  0
    3.3455    0.4199   -0.7504 C   0  0  0  0  0  0  0  0  0  0  0  0
    2.0145    0.2525   -1.1558 C   0  0  0  0  0  0  0  0  0  0  0  0
    1.7633   -0.0325   -2.8455 Cl  0  0  0  0  0  0  0  0  0  0  0  0
   -1.2971   -0.8708   -0.1999 C   0  0  0  0  0  0  0  0  0  0  0  0
   -1.0363   -1.9061    0.6359 N   0  0  0  0  0  0  0  0  0  0  0  0
   -2.4600   -0.5540   -0.8644 C   0  0  0  0  0  0  0  0  0  0  0  0
   -4.0392   -1.3829   -0.7337 S   0  0  0  0  0  4  0  0  0  0  0  0
   -3.7955   -2.6633    0.0208 O   0  0  0  0  0  0  0  0  0  0  0  0
   -4.8342   -0.1710    0.3620 C   0  0  0  0  0  0  0  0  0  0  0  0
   -6.1017   -0.5349    0.6800 F   0  0  0  0  0  0  0  0  0  0  0  0
   -4.9135    1.0490   -0.2294 F   0  0  0  0  0  0  0  0  0  0  0  0
   -4.1607    0.0010    1.5272 F   0  0  0  0  0  0  0  0  0  0  0  0
  1  2  3  0
  2  3  1  0
  3  4  2  0
  4  5  1  0
  5  6  1  0
  6  7  2  0
  7  8  1  0
  7  9  1  0
  9 10  2  0
 10 11  1  0
 11 12  1  0
 11 13  1  0
 11 14  1  0
 10 15  1  0
 15 16  2  0
 16 17  1  0
  5 18  1  0
 18 19  1  0
 18 20  2  0
 20 21  1  0
 21 22  2  0
 21 23  1  1
 23 24  1  0
 23 25  1  0
 23 26  1  0
 20  3  1  0
 16  6  1  0
M  END
