
     RDKit          3D

 26 27  0  0  0  0  0  0  0  0999 V2000
   -3.2368   -4.1327    0.8370 N   0  0  0  0  0  0  0  0  0  0  0  0
   -2.6117   -3.2000    0.5409 C   0  0  0  0  0  0  0  0  0  0  0  0
   -1.9113   -2.0207    0.1257 C   0  0  0  0  0  0  0  0  0  0  0  0
   -0.6544   -1.8224    0.5354 N   0  0  0  0  0  0  0  0  0  0  0  0
   -0.2798   -0.6533   -0.0539 N   0  0  0  0  0  0  0  0  0  0  0  0
    1.0099   -0.1272    0.1857 C   0  0  0  0  0  0  0  0  0  0  0  0
    2.1442   -0.9275   -0.0300 C   0  0  0  0  0  0  0  0  0  0  0  0
    2.0820   -2.5170   -0.7147 Cl  0  0  0  0  0  0  0  0  0  0  0  0
    3.4241   -0.4157    0.2228 C   0  0  0  0  0  0  0  0  0  0  0  0
    3.5973    0.8939    0.6892 C   0  0  0  0  0  0  0  0  0  0  0  0
    4.9769    1.4324    0.9823 C   0  0  0  0  0  0  0  0  0  0  0  0
    5.3482    1.2165    2.2720 F   0  0  0  0  0  0  0  0  0  0  0  0
    5.0717    2.7750    0.7802 F   0  0  0  0  0  0  0  0  0  0  0  0
    5.9432    0.8683    0.2085 F   0  0  0  0  0  0  0  0  0  0  0  0
    2.4601    1.6798    0.9191 C   0  0  0  0  0  0  0  0  0  0  0  0
    1.1746    1.1781    0.6738 C   0  0  0  0  0  0  0  0  0  0  0  0
   -0.1414    2.2088    1.1225 Cl  0  0  0  0  0  0  0  0  0  0  0  0
   -1.2959   -0.1329   -0.8606 C   0  0  0  0  0  0  0  0  0  0  0  0
   -1.1725    0.9585   -1.6558 N   0  0  0  0  0  0  0  0  0  0  0  0
   -2.3612   -0.9915   -0.7121 C   0  0  0  0  0  0  0  0  0  0  0  0
   -3.9746   -0.8529   -1.4711 S   0  0  0  0  0  4  0  0  0  0  0  0
   -3.8678    0.2194   -2.5233 O   0  0  0  0  0  0  0  0  0  0  0  0
   -4.8462   -0.1969   -0.0180 C   0  0  0  0  0  0  0  0  0  0  0  0
   -4.3066    0.9622    0.4359 F   0  0  0  0  0  0  0  0  0  0  0  0
   -6.1546    0.0447   -0.2822 F   0  0  0  0  0  0  0  0  0  0  0  0
   -4.8112   -1.0774    1.0155 F   0  0  0  0  0  0  0  0  0  0  0  0
  1  2  3  0
  2  3  1  0
  3  4  2  0
  4  5  1  0
  5  6  1  0
  6  7  2  0
  7  8  1  0
  7  9  1  0
  9 10  2  0
 10 11  1  0
 11 12  1  0
 11 13  1  0
 11 14  1  0
 10 15  1  0
 15 16  2  0
 16 17  1  0
  5 18  1  0
 18 19  1  0
 18 20  2  0
 20 21  1  0
 21 22  2  0
 21 23  1  1
 23 24  1  0
 23 25  1  0
 23 26  1  0
 20  3  1  0
 16  6  1  0
M  END
