
     RDKit          3D

 25 27  0  0  0  0  0  0  0  0999 V2000
   -3.3616    0.0200   -2.0463 C   0  0  0  0  0  0  0  0  0  0  0  0
   -3.9811   -0.0076   -0.6369 C   0  0  0  0  0  0  0  0  0  0  0  0
   -5.1172   -1.0616   -0.6441 C   0  0  0  0  0  0  0  0  0  0  0  0
   -4.6423    1.3531   -0.3522 C   0  0  0  0  0  0  0  0  0  0  0  0
   -2.9171   -0.3919    0.4494 C   0  0  1  0  0  0  0  0  0  0  0  0
   -2.5611   -1.7819    0.2463 O   0  0  0  0  0  0  0  0  0  0  0  0
   -1.5850    0.4194    0.5011 C   0  0  2  0  0  0  0  0  0  0  0  0
   -0.7728   -0.1491    1.5664 O   0  0  0  0  0  0  0  0  0  0  0  0
    0.5191   -0.3356    1.1591 C   0  0  0  0  0  0  0  0  0  0  0  0
    1.4733    0.6343    1.4468 C   0  0  0  0  0  0  0  0  0  0  0  0
    2.7995    0.4323    1.0552 C   0  0  0  0  0  0  0  0  0  0  0  0
    3.1882   -0.7424    0.3866 C   0  0  0  0  0  0  0  0  0  0  0  0
    4.5861   -0.9529   -0.0243 C   0  0  0  0  0  0  0  0  0  0  0  0
    4.9108   -1.2608   -1.3560 C   0  0  0  0  0  0  0  0  0  0  0  0
    6.2376   -1.4615   -1.7467 C   0  0  0  0  0  0  0  0  0  0  0  0
    7.2631   -1.3592   -0.8105 C   0  0  0  0  0  0  0  0  0  0  0  0
    6.9634   -1.0558    0.5152 C   0  0  0  0  0  0  0  0  0  0  0  0
    5.6363   -0.8541    0.9040 C   0  0  0  0  0  0  0  0  0  0  0  0
    2.2049   -1.7141    0.1287 C   0  0  0  0  0  0  0  0  0  0  0  0
    0.8777   -1.5171    0.5184 C   0  0  0  0  0  0  0  0  0  0  0  0
   -1.7551    1.8254    0.8227 N   0  0  0  0  0  0  0  0  0  0  0  0
   -2.1496    2.3665    2.0104 C   0  0  0  0  0  0  0  0  0  0  0  0
   -2.1364    3.6764    1.9254 N   0  0  0  0  0  0  0  0  0  0  0  0
   -1.6851    3.8972    0.6556 C   0  0  0  0  0  0  0  0  0  0  0  0
   -1.4342    2.7978   -0.0599 N   0  0  0  0  0  0  0  0  0  0  0  0
  1  2  1  0
  2  3  1  0
  2  4  1  0
  2  5  1  0
  5  6  1  6
  5  7  1  0
  7  8  1  1
  8  9  1  0
  9 10  2  0
 10 11  1  0
 11 12  2  0
 12 13  1  0
 13 14  2  0
 14 15  1  0
 15 16  2  0
 16 17  1  0
 17 18  2  0
 12 19  1  0
 19 20  2  0
  7 21  1  0
 21 22  1  0
 22 23  2  0
 23 24  1  0
 24 25  2  0
 20  9  1  0
 25 21  1  0
 18 13  1  0
M  END
