
     RDKit          3D

 26 28  0  0  0  0  0  0  0  0999 V2000
   -2.8016   -0.7769    0.6707 C   0  0  0  0  0  0  0  0  0  0  0  0
   -3.5063   -0.3442   -0.5960 C   0  0  0  0  0  0  0  0  0  0  0  0
   -4.9147   -0.8796   -0.6981 C   0  0  0  0  0  0  0  0  0  0  0  0
   -2.7216   -0.2149   -1.8967 C   0  0  2  0  0  0  0  0  0  0  0  0
   -1.2817   -0.5462   -1.9998 C   0  0  0  0  0  0  0  0  0  0  0  0
   -0.4708    0.2474   -2.4525 O   0  0  0  0  0  0  0  0  0  0  0  0
   -1.0265   -1.8086   -1.5746 O   0  0  0  0  0  0  0  0  0  0  0  0
    0.3583   -2.1676   -1.5159 C   0  0  0  0  0  0  0  0  0  0  0  0
    0.8675   -1.9230   -0.1192 C   0  0  0  0  0  0  0  0  0  0  0  0
    0.7470   -2.9097    0.8694 C   0  0  0  0  0  0  0  0  0  0  0  0
    1.1674   -2.6580    2.1774 C   0  0  0  0  0  0  0  0  0  0  0  0
    1.7059   -1.4156    2.5112 C   0  0  0  0  0  0  0  0  0  0  0  0
    1.8376   -0.4291    1.5349 C   0  0  0  0  0  0  0  0  0  0  0  0
    2.3312    0.7887    1.9488 O   0  0  0  0  0  0  0  0  0  0  0  0
    3.1956    1.4429    1.1016 C   0  0  0  0  0  0  0  0  0  0  0  0
    4.3290    0.8230    0.5698 C   0  0  0  0  0  0  0  0  0  0  0  0
    5.1839    1.5442   -0.2650 C   0  0  0  0  0  0  0  0  0  0  0  0
    4.9162    2.8856   -0.5488 C   0  0  0  0  0  0  0  0  0  0  0  0
    3.7997    3.5099    0.0090 C   0  0  0  0  0  0  0  0  0  0  0  0
    2.9399    2.7896    0.8398 C   0  0  0  0  0  0  0  0  0  0  0  0
    1.4050   -0.6740    0.2277 C   0  0  0  0  0  0  0  0  0  0  0  0
   -3.2338    1.0285   -1.1942 C   0  0  2  0  0  0  0  0  0  0  0  0
   -2.3323    1.9743   -0.5107 C   0  0  0  0  0  0  0  0  0  0  0  0
   -2.6330    2.7863    0.5151 C   0  0  0  0  0  0  0  0  0  0  0  0
   -1.4275    3.8309    1.1810 Cl  0  0  0  0  0  0  0  0  0  0  0  0
   -4.2093    2.8339    1.2184 Cl  0  0  0  0  0  0  0  0  0  0  0  0
  1  2  1  0
  2  3  1  0
  2  4  1  0
  4  5  1  1
  5  6  2  0
  5  7  1  0
  7  8  1  0
  8  9  1  0
  9 10  2  0
 10 11  1  0
 11 12  2  0
 12 13  1  0
 13 14  1  0
 14 15  1  0
 15 16  2  0
 16 17  1  0
 17 18  2  0
 18 19  1  0
 19 20  2  0
 13 21  2  0
  4 22  1  0
 22 23  1  1
 23 24  2  3
 24 25  1  0
 24 26  1  0
 22  2  1  0
 21  9  1  0
 20 15  1  0
M  END
