
     RDKit          3D

 22 23  0  0  0  0  0  0  0  0999 V2000
    5.0505    1.8910   -1.7705 C   0  0  0  0  0  0  0  0  0  0  0  0
    4.0301    0.9778   -1.3677 O   0  0  0  0  0  0  0  0  0  0  0  0
    4.4929   -0.2546   -1.0030 C   0  0  0  0  0  0  0  0  0  0  0  0
    5.6706   -0.5911   -1.0497 O   0  0  0  0  0  0  0  0  0  0  0  0
    3.3322   -1.1695   -0.5977 C   0  0  1  0  0  0  0  0  0  0  0  0
    3.8686   -2.4086    0.1128 C   0  0  0  0  0  0  0  0  0  0  0  0
    2.4773   -0.4552    0.2982 O   0  0  0  0  0  0  0  0  0  0  0  0
    1.1298   -0.6631    0.2213 C   0  0  0  0  0  0  0  0  0  0  0  0
    0.4956   -1.7416   -0.3922 C   0  0  0  0  0  0  0  0  0  0  0  0
   -0.9009   -1.8310   -0.3823 C   0  0  0  0  0  0  0  0  0  0  0  0
   -1.6740   -0.8472    0.2383 C   0  0  0  0  0  0  0  0  0  0  0  0
   -3.0366   -1.0536    0.1893 O   0  0  0  0  0  0  0  0  0  0  0  0
   -3.8570    0.0170    0.4474 C   0  0  0  0  0  0  0  0  0  0  0  0
   -4.4447    0.0920    1.7138 C   0  0  0  0  0  0  0  0  0  0  0  0
   -5.3137    1.1417    2.0126 C   0  0  0  0  0  0  0  0  0  0  0  0
   -5.6040    2.0984    1.0392 C   0  0  0  0  0  0  0  0  0  0  0  0
   -6.6764    3.3914    1.4121 Cl  0  0  0  0  0  0  0  0  0  0  0  0
   -5.0417    2.0136   -0.2341 C   0  0  0  0  0  0  0  0  0  0  0  0
   -4.1723    0.9639   -0.5347 C   0  0  0  0  0  0  0  0  0  0  0  0
   -3.5253    0.8654   -2.1313 Cl  0  0  0  0  0  0  0  0  0  0  0  0
   -1.0405    0.2220    0.8721 C   0  0  0  0  0  0  0  0  0  0  0  0
    0.3551    0.3078    0.8615 C   0  0  0  0  0  0  0  0  0  0  0  0
  1  2  1  0
  2  3  1  0
  3  4  2  0
  3  5  1  0
  5  6  1  1
  5  7  1  0
  7  8  1  0
  8  9  2  0
  9 10  1  0
 10 11  2  0
 11 12  1  0
 12 13  1  0
 13 14  2  0
 14 15  1  0
 15 16  2  0
 16 17  1  0
 16 18  1  0
 18 19  2  0
 19 20  1  0
 11 21  1  0
 21 22  2  0
 22  8  1  0
 19 13  1  0
M  END
