
     RDKit          3D

 25 27  0  0  0  0  0  0  0  0999 V2000
   -4.8989   -0.7126    0.6222 C   0  0  0  0  0  0  0  0  0  0  0  0
   -4.2548    0.3485   -0.2881 C   0  0  0  0  0  0  0  0  0  0  0  0
   -4.0405   -0.2520   -1.6893 C   0  0  0  0  0  0  0  0  0  0  0  0
   -5.2834    1.4998   -0.4234 C   0  0  0  0  0  0  0  0  0  0  0  0
   -2.9169    0.9102    0.3064 C   0  0  2  0  0  0  0  0  0  0  0  0
   -2.5510    2.0814   -0.4636 O   0  0  0  0  0  0  0  0  0  0  0  0
   -1.6614   -0.0180    0.3338 C   0  0  1  0  0  0  0  0  0  0  0  0
   -0.5874    0.7578    0.9218 O   0  0  0  0  0  0  0  0  0  0  0  0
    0.6898    0.5437    0.4861 C   0  0  0  0  0  0  0  0  0  0  0  0
    1.5900    1.5610    0.8058 C   0  0  0  0  0  0  0  0  0  0  0  0
    2.9353    1.4684    0.4348 C   0  0  0  0  0  0  0  0  0  0  0  0
    3.4153    0.3491   -0.2598 C   0  0  0  0  0  0  0  0  0  0  0  0
    4.8299    0.2459   -0.6531 C   0  0  0  0  0  0  0  0  0  0  0  0
    5.1940   -0.0071   -1.9862 C   0  0  0  0  0  0  0  0  0  0  0  0
    6.5369   -0.1049   -2.3610 C   0  0  0  0  0  0  0  0  0  0  0  0
    7.5398    0.0478   -1.4071 C   0  0  0  0  0  0  0  0  0  0  0  0
    7.2011    0.2984   -0.0799 C   0  0  0  0  0  0  0  0  0  0  0  0
    5.8577    0.3970    0.2929 C   0  0  0  0  0  0  0  0  0  0  0  0
    2.5018   -0.6725   -0.5631 C   0  0  0  0  0  0  0  0  0  0  0  0
    1.1534   -0.5808   -0.1916 C   0  0  0  0  0  0  0  0  0  0  0  0
   -1.8250   -1.2113    1.1419 N   0  0  0  0  0  0  0  0  0  0  0  0
   -1.9073   -1.2948    2.4998 C   0  0  0  0  0  0  0  0  0  0  0  0
   -2.0254   -2.5522    2.8583 N   0  0  0  0  0  0  0  0  0  0  0  0
   -1.9657   -3.2185    1.6684 C   0  0  0  0  0  0  0  0  0  0  0  0
   -1.8421   -2.4446    0.5864 N   0  0  0  0  0  0  0  0  0  0  0  0
  1  2  1  0
  2  3  1  0
  2  4  1  0
  2  5  1  0
  5  6  1  6
  5  7  1  0
  7  8  1  1
  8  9  1  0
  9 10  2  0
 10 11  1  0
 11 12  2  0
 12 13  1  0
 13 14  2  0
 14 15  1  0
 15 16  2  0
 16 17  1  0
 17 18  2  0
 12 19  1  0
 19 20  2  0
  7 21  1  0
 21 22  1  0
 22 23  2  0
 23 24  1  0
 24 25  2  0
 20  9  1  0
 25 21  1  0
 18 13  1  0
M  END
