
     RDKit          3D

 18 19  0  0  0  0  0  0  0  0999 V2000
   -3.7619    0.9787    0.8240 C   0  0  0  0  0  0  0  0  0  0  0  0
   -2.8750    0.1300    1.3646 C   0  0  0  0  0  0  0  0  0  0  0  0
   -1.9710   -0.8244    0.6195 C   0  0  1  0  0  0  0  0  0  0  0  0
   -2.2442   -2.2774    0.9896 C   0  0  0  0  0  0  0  0  0  0  0  0
   -2.1045   -0.6761   -0.7872 O   0  0  0  0  0  0  0  0  0  0  0  0
   -0.9214   -0.2363   -1.3062 C   0  0  0  0  0  0  0  0  0  0  0  0
   -0.8301   -0.0028   -2.5021 O   0  0  0  0  0  0  0  0  0  0  0  0
    0.0318   -0.1092   -0.3347 N   0  0  0  0  0  0  0  0  0  0  0  0
    1.3844    0.3189   -0.5384 C   0  0  0  0  0  0  0  0  0  0  0  0
    2.2315    0.6213    0.5429 C   0  0  0  0  0  0  0  0  0  0  0  0
    3.5526    1.0406    0.3420 C   0  0  0  0  0  0  0  0  0  0  0  0
    4.5463    1.4056    1.7003 Cl  0  0  0  0  0  0  0  0  0  0  0  0
    4.0717    1.1710   -0.9370 C   0  0  0  0  0  0  0  0  0  0  0  0
    3.2537    0.8784   -2.0178 C   0  0  0  0  0  0  0  0  0  0  0  0
    3.8779    1.0267   -3.6159 Cl  0  0  0  0  0  0  0  0  0  0  0  0
    1.9305    0.4599   -1.8267 C   0  0  0  0  0  0  0  0  0  0  0  0
   -0.5182   -0.4688    0.8689 C   0  0  0  0  0  0  0  0  0  0  0  0
    0.0102   -0.5392    1.9721 O   0  0  0  0  0  0  0  0  0  0  0  0
  1  2  2  0
  2  3  1  0
  3  4  1  6
  3  5  1  0
  5  6  1  0
  6  7  2  0
  6  8  1  0
  8  9  1  0
  9 10  2  0
 10 11  1  0
 11 12  1  0
 11 13  2  0
 13 14  1  0
 14 15  1  0
 14 16  2  0
  8 17  1  0
 17 18  2  0
 17  3  1  0
 16  9  1  0
M  END
