
     RDKit          3D

 21 22  0  0  0  0  0  0  0  0999 V2000
   -3.9274   -0.6405   -0.9987 C   0  0  0  0  0  0  0  0  0  0  0  0
   -2.6107   -0.6892   -0.1887 C   0  0  0  0  0  0  0  0  0  0  0  0
   -2.0287   -2.1062   -0.3270 C   0  0  0  0  0  0  0  0  0  0  0  0
   -2.9680   -0.4458    1.2923 C   0  0  0  0  0  0  0  0  0  0  0  0
   -1.6298    0.4031   -0.7453 C   0  0  1  0  0  0  0  0  0  0  0  0
   -2.2711    1.6815   -0.6342 O   0  0  0  0  0  0  0  0  0  0  0  0
   -0.1928    0.4064   -0.1280 C   0  0  1  0  0  0  0  0  0  0  0  0
    0.8112   -0.3679   -1.0201 C   0  0  0  0  0  0  0  0  0  0  0  0
    2.1732   -0.5857   -0.3854 C   0  0  0  0  0  0  0  0  0  0  0  0
    2.2621   -1.4252    0.7412 C   0  0  0  0  0  0  0  0  0  0  0  0
    3.4865   -1.6518    1.3732 C   0  0  0  0  0  0  0  0  0  0  0  0
    4.6393   -1.0468    0.8839 C   0  0  0  0  0  0  0  0  0  0  0  0
    6.1473   -1.3285    1.6622 Cl  0  0  0  0  0  0  0  0  0  0  0  0
    4.5807   -0.2219   -0.2342 C   0  0  0  0  0  0  0  0  0  0  0  0
    3.3554    0.0054   -0.8683 C   0  0  0  0  0  0  0  0  0  0  0  0
    3.3735    1.0232   -2.2644 Cl  0  0  0  0  0  0  0  0  0  0  0  0
    0.2875    1.7488    0.1739 N   0  0  0  0  0  0  0  0  0  0  0  0
    0.6175    2.7571   -0.6780 C   0  0  0  0  0  0  0  0  0  0  0  0
    0.9936    3.8092    0.0121 N   0  0  0  0  0  0  0  0  0  0  0  0
    0.8459    3.3985    1.3045 C   0  0  0  0  0  0  0  0  0  0  0  0
    0.3920    2.1515    1.4575 N   0  0  0  0  0  0  0  0  0  0  0  0
  1  2  1  0
  2  3  1  0
  2  4  1  0
  2  5  1  0
  5  6  1  1
  5  7  1  0
  7  8  1  6
  8  9  1  0
  9 10  2  0
 10 11  1  0
 11 12  2  0
 12 13  1  0
 12 14  1  0
 14 15  2  0
 15 16  1  0
  7 17  1  0
 17 18  1  0
 18 19  2  0
 19 20  1  0
 20 21  2  0
 15  9  1  0
 21 17  1  0
M  END
