
     RDKit          3D

 22 24  0  0  0  0  0  0  0  0999 V2000
   -2.2781   -0.8706    1.5354 C   0  0  0  0  0  0  0  0  0  0  0  0
   -1.4747   -1.7577    0.5687 C   0  0  0  0  0  0  0  0  0  0  0  0
   -2.2971   -3.0525    0.3782 C   0  0  0  0  0  0  0  0  0  0  0  0
   -0.1081   -2.1054    1.2243 C   0  0  0  0  0  0  0  0  0  0  0  0
    0.9703   -1.7448    0.2070 C   0  0  0  0  0  0  0  0  0  0  0  0
    0.3789   -0.5695   -0.6006 C   0  0  2  0  0  0  0  0  0  0  0  0
    0.6009    0.7737    0.1246 C   0  0  0  0  0  0  0  0  0  0  0  0
    2.0615    1.1378    0.3078 C   0  0  0  0  0  0  0  0  0  0  0  0
    2.6332    1.1504    1.5886 C   0  0  0  0  0  0  0  0  0  0  0  0
    3.9782    1.4847    1.7609 C   0  0  0  0  0  0  0  0  0  0  0  0
    4.7569    1.8132    0.6540 C   0  0  0  0  0  0  0  0  0  0  0  0
    6.4142    2.2246    0.8658 Cl  0  0  0  0  0  0  0  0  0  0  0  0
    4.2019    1.8127   -0.6235 C   0  0  0  0  0  0  0  0  0  0  0  0
    2.8571    1.4775   -0.7963 C   0  0  0  0  0  0  0  0  0  0  0  0
   -1.0856   -1.0759   -0.8036 C   0  0  1  0  0  0  0  0  0  0  0  0
   -0.9518   -2.1817   -1.7618 O   0  0  0  0  0  0  0  0  0  0  0  0
   -2.1655   -0.1819   -1.4628 C   0  0  0  0  0  0  0  0  0  0  0  0
   -2.1799    1.2374   -1.2359 N   0  0  0  0  0  0  0  0  0  0  0  0
   -1.8957    2.2154   -2.1427 C   0  0  0  0  0  0  0  0  0  0  0  0
   -2.1060    3.3922   -1.6012 N   0  0  0  0  0  0  0  0  0  0  0  0
   -2.5645    3.0776   -0.3548 C   0  0  0  0  0  0  0  0  0  0  0  0
   -2.6370    1.7704   -0.0908 N   0  0  0  0  0  0  0  0  0  0  0  0
  1  2  1  0
  2  3  1  0
  2  4  1  0
  4  5  1  0
  5  6  1  0
  6  7  1  1
  7  8  1  0
  8  9  2  0
  9 10  1  0
 10 11  2  0
 11 12  1  0
 11 13  1  0
 13 14  2  0
  6 15  1  0
 15 16  1  6
 15 17  1  0
 17 18  1  0
 18 19  1  0
 19 20  2  0
 20 21  1  0
 21 22  2  0
 15  2  1  0
 22 18  1  0
 14  8  1  0
M  END
