
     RDKit          3D

 26 27  0  0  0  0  0  0  0  0999 V2000
    7.3515    1.4114   -0.3507 C   0  0  0  0  0  0  0  0  0  0  0  0
    6.0846    1.4055   -1.1910 C   0  0  0  0  0  0  0  0  0  0  0  0
    5.2128    0.1922   -0.8796 C   0  0  0  0  0  0  0  0  0  0  0  0
    3.9429    0.1820   -1.7251 C   0  0  0  0  0  0  0  0  0  0  0  0
    3.1762   -1.0002   -1.4442 O   0  0  0  0  0  0  0  0  0  0  0  0
    2.3128   -0.9111   -0.3869 C   0  0  0  0  0  0  0  0  0  0  0  0
    2.1582    0.0874    0.3027 O   0  0  0  0  0  0  0  0  0  0  0  0
    1.5774   -2.2452   -0.2114 C   0  0  1  0  0  0  0  0  0  0  0  0
    2.5533   -3.2545    0.3897 C   0  0  0  0  0  0  0  0  0  0  0  0
    0.4683   -2.1782    0.6819 O   0  0  0  0  0  0  0  0  0  0  0  0
   -0.7080   -1.6494    0.2291 C   0  0  0  0  0  0  0  0  0  0  0  0
   -0.9410   -1.1005   -1.0326 C   0  0  0  0  0  0  0  0  0  0  0  0
   -2.2065   -0.5982   -1.3564 C   0  0  0  0  0  0  0  0  0  0  0  0
   -3.2354   -0.6255   -0.4161 C   0  0  0  0  0  0  0  0  0  0  0  0
   -4.4620   -0.1464   -0.8173 O   0  0  0  0  0  0  0  0  0  0  0  0
   -5.1147    0.6851    0.0611 C   0  0  0  0  0  0  0  0  0  0  0  0
   -6.4087    0.3293    0.4433 C   0  0  0  0  0  0  0  0  0  0  0  0
   -7.1283    1.1569    1.3101 C   0  0  0  0  0  0  0  0  0  0  0  0
   -6.5603    2.3488    1.7813 C   0  0  0  0  0  0  0  0  0  0  0  0
   -7.3016    3.1958    2.6690 C   0  0  0  0  0  0  0  0  0  0  0  0
   -7.9048    3.8785    3.3877 N   0  0  0  0  0  0  0  0  0  0  0  0
   -5.2734    2.7144    1.3760 C   0  0  0  0  0  0  0  0  0  0  0  0
   -4.5625    1.8854    0.5126 C   0  0  0  0  0  0  0  0  0  0  0  0
   -3.3448    2.2735    0.1091 F   0  0  0  0  0  0  0  0  0  0  0  0
   -3.0152   -1.1864    0.8413 C   0  0  0  0  0  0  0  0  0  0  0  0
   -1.7513   -1.6882    1.1600 C   0  0  0  0  0  0  0  0  0  0  0  0
  1  2  1  0
  2  3  1  0
  3  4  1  0
  4  5  1  0
  5  6  1  0
  6  7  2  0
  6  8  1  0
  8  9  1  1
  8 10  1  0
 10 11  1  0
 11 12  2  0
 12 13  1  0
 13 14  2  0
 14 15  1  0
 15 16  1  0
 16 17  2  0
 17 18  1  0
 18 19  2  0
 19 20  1  0
 20 21  3  0
 19 22  1  0
 22 23  2  0
 23 24  1  0
 14 25  1  0
 25 26  2  0
 26 11  1  0
 23 16  1  0
M  END
