
     RDKit          3D

 25 27  0  0  0  0  0  0  0  0999 V2000
   -2.8218   -2.8014   -2.3434 C   0  0  0  0  0  0  0  0  0  0  0  0
   -3.4355   -2.0434   -1.1939 C   0  0  0  0  0  0  0  0  0  0  0  0
   -2.9635   -2.1736    0.0598 C   0  0  0  0  0  0  0  0  0  0  0  0
   -3.4759   -1.5316    1.2817 C   0  0  1  0  0  0  0  0  0  0  0  0
   -2.5632   -1.1513    2.4305 C   0  0  2  0  0  0  0  0  0  0  0  0
   -3.2123   -0.0636    1.5789 C   0  0  0  0  0  0  0  0  0  0  0  0
   -2.3628    0.7579    0.6342 C   0  0  0  0  0  0  0  0  0  0  0  0
   -4.3248    0.7325    2.2144 C   0  0  0  0  0  0  0  0  0  0  0  0
   -1.0904   -1.3206    2.4379 C   0  0  0  0  0  0  0  0  0  0  0  0
   -0.5393   -2.3536    2.0874 O   0  0  0  0  0  0  0  0  0  0  0  0
   -0.4871   -0.2105    2.9228 O   0  0  0  0  0  0  0  0  0  0  0  0
    0.9440   -0.2133    2.8998 C   0  0  0  0  0  0  0  0  0  0  0  0
    1.4469    0.6760    1.8185 C   0  0  0  0  0  0  0  0  0  0  0  0
    1.7024    2.0293    1.9034 C   0  0  0  0  0  0  0  0  0  0  0  0
    2.1440    2.5157    0.7170 O   0  0  0  0  0  0  0  0  0  0  0  0
    2.1761    1.4684   -0.1561 C   0  0  0  0  0  0  0  0  0  0  0  0
    1.7495    0.3179    0.4751 C   0  0  0  0  0  0  0  0  0  0  0  0
    2.6381    1.7674   -1.5384 C   0  0  0  0  0  0  0  0  0  0  0  0
    4.0414    1.2689   -1.8019 C   0  0  0  0  0  0  0  0  0  0  0  0
    4.2537    0.0498   -2.4641 C   0  0  0  0  0  0  0  0  0  0  0  0
    5.5513   -0.4166   -2.6890 C   0  0  0  0  0  0  0  0  0  0  0  0
    6.6471    0.3266   -2.2504 C   0  0  0  0  0  0  0  0  0  0  0  0
    6.4484    1.5358   -1.5855 C   0  0  0  0  0  0  0  0  0  0  0  0
    5.1522    2.0047   -1.3597 C   0  0  0  0  0  0  0  0  0  0  0  0
   -4.6055   -1.1731   -1.5619 C   0  0  0  0  0  0  0  0  0  0  0  0
  1  2  1  0
  2  3  2  3
  4  3  1  6
  4  5  1  0
  5  6  1  0
  6  7  1  0
  6  8  1  0
  5  9  1  6
  9 10  2  0
  9 11  1  0
 11 12  1  0
 12 13  1  0
 13 14  2  0
 14 15  1  0
 15 16  1  0
 16 17  2  0
 16 18  1  0
 18 19  1  0
 19 20  2  0
 20 21  1  0
 21 22  2  0
 22 23  1  0
 23 24  2  0
  2 25  1  0
  6  4  1  0
 17 13  1  0
 24 19  1  0
M  END
