
     RDKit          3D

 12 12  0  0  0  0  0  0  0  0999 V2000
    3.0017    1.3030   -0.1724 O   0  0  0  0  0  0  0  0  0  0  0  0
    2.4119    0.0213   -0.4769 C   0  0  0  0  0  0  0  0  0  0  0  0
    0.9465    0.0044    0.0011 C   0  0  2  0  0  0  0  0  0  0  0  0
    0.1517   -1.2303   -0.5111 C   0  0  0  0  0  0  0  0  0  0  0  0
   -1.3393   -1.0895   -0.0195 C   0  0  2  0  0  0  0  0  0  0  0  0
   -1.7162    0.3300    0.4644 C   0  0  2  0  0  0  0  0  0  0  0  0
   -1.0287    1.3989   -0.4564 C   0  0  2  0  0  0  0  0  0  0  0  0
    0.3990    1.2549   -0.4989 O   0  0  0  0  0  0  0  0  0  0  0  0
   -1.2520    2.6080    0.0504 O   0  0  0  0  0  1  0  0  0  0  0  0
   -1.3397    0.5861    1.8394 O   0  0  0  0  0  0  0  0  0  0  0  0
   -1.6667   -2.0987    0.9572 O   0  0  0  0  0  0  0  0  0  0  0  0
    0.6767   -2.3753   -0.0558 O   0  0  0  0  0  1  0  0  0  0  0  0
  1  2  1  0
  3  2  1  6
  3  4  1  0
  4  5  1  0
  5  6  1  0
  6  7  1  0
  7  8  1  0
  7  9  1  1
  6 10  1  1
  5 11  1  1
  4 12  1  0
  8  3  1  0
M  RAD  2   9   2  12   2
M  END
