
     RDKit          3D

  8  8  0  0  0  0  0  0  0  0999 V2000
   -2.5575    0.6308    0.4338 O   0  0  0  0  0  0  0  0  0  0  0  0
   -1.3150    0.3085   -0.1807 C   0  0  2  0  0  0  0  0  0  0  0  0
   -0.9939   -1.1686    0.0446 C   0  0  0  0  0  0  0  0  0  0  0  0
    0.3856   -1.5325   -0.4951 C   0  0  0  0  0  0  0  0  0  0  0  0
    1.4686   -0.6244    0.0787 C   0  0  0  0  0  0  0  0  0  0  0  0
    1.1462    0.8531   -0.1403 C   0  0  2  0  0  0  0  0  0  0  0  0
    2.1437    1.6335    0.5098 O   0  0  0  0  0  0  0  0  0  0  0  0
   -0.2329    1.2091    0.4065 C   0  0  0  0  0  0  0  0  0  0  0  0
  2  1  1  1
  2  3  1  0
  3  4  1  0
  4  5  1  0
  5  6  1  0
  6  7  1  1
  6  8  1  0
  8  2  1  0
M  END
