
     RDKit          3D

  6  5  0  0  0  0  0  0  0  0999 V2000
   -1.7679   -0.6731   -0.3379 C   0  0  0  0  0  0  0  0  0  0  0  0
   -0.5517    0.2449   -0.3774 C   0  0  2  0  0  0  0  0  0  0  0  0
    0.7375   -0.4901    0.0388 C   0  0  1  0  0  0  0  0  0  0  0  0
    1.9720    0.3933   -0.0970 C   0  0  0  0  0  0  0  0  0  0  0  0
    0.6352   -0.8930    1.4077 O   0  0  0  0  0  0  0  0  0  0  0  0
   -0.7751    1.3283    0.5344 O   0  0  0  0  0  0  0  0  0  0  0  0
  2  1  1  1
  2  3  1  0
  3  4  1  1
  3  5  1  0
  2  6  1  0
M  END
