
     RDKit          3D

 11 10  0  0  0  0  0  0  0  0999 V2000
    4.9152    0.4833    0.0166 C   0  0  0  0  0  0  0  0  0  0  0  0
    3.5790    0.3407   -0.6936 C   0  0  0  0  0  0  0  0  0  0  0  0
    2.4942   -0.1693    0.2514 C   0  0  0  0  0  0  0  0  0  0  0  0
    1.1611   -0.3140   -0.4448 C   0  0  0  0  0  0  0  0  0  0  0  0
    0.9439   -0.0649   -1.6215 O   0  0  0  0  0  0  0  0  0  0  0  0
    0.2354   -0.7656    0.4491 O   0  0  0  0  0  0  0  0  0  0  0  0
   -1.1022   -0.9592   -0.0595 C   0  0  1  0  0  0  0  0  0  0  0  0
   -1.7401   -2.0390    0.8092 C   0  0  0  0  0  0  0  0  0  0  0  0
   -1.8562    0.3770    0.0113 C   0  0  0  0  0  0  0  0  0  0  0  0
   -3.2672    0.3114   -0.5724 C   0  0  0  0  0  0  0  0  0  0  0  0
   -3.9294    1.6810   -0.5772 C   0  0  0  0  0  0  0  0  0  0  0  0
  1  2  1  0
  2  3  1  0
  3  4  1  0
  4  5  2  0
  4  6  1  0
  6  7  1  0
  7  8  1  1
  7  9  1  0
  9 10  1  0
 10 11  1  0
M  END
