
     RDKit          3D

  8  8  0  0  0  0  0  0  0  0999 V2000
    1.9873    0.4474    0.7140 C   0  0  0  0  0  0  0  0  0  0  0  0
    1.2084    0.0188   -0.5334 C   0  0  1  0  0  0  0  0  0  0  0  0
    0.6222   -1.3970   -0.3685 C   0  0  0  0  0  0  0  0  0  0  0  0
   -0.8998   -1.4301   -0.2054 C   0  0  0  0  0  0  0  0  0  0  0  0
   -1.4011   -0.2952    0.6805 C   0  0  0  0  0  0  0  0  0  0  0  0
   -1.0229    1.0804    0.1202 C   0  0  2  0  0  0  0  0  0  0  0  0
   -2.1613    1.6744   -0.5031 O   0  0  0  0  0  0  0  0  0  0  0  0
    0.1236    1.0376   -0.8949 C   0  0  0  0  0  0  0  0  0  0  0  0
  2  1  1  1
  2  3  1  0
  3  4  1  0
  4  5  1  0
  5  6  1  0
  6  7  1  6
  6  8  1  0
  8  2  1  0
M  END
