
     RDKit          3D

 11 11  0  0  0  0  0  0  0  0999 V2000
    3.5372   -0.2461    0.2925 C   0  0  0  0  0  0  0  0  0  0  0  0
    2.3552   -0.2209   -0.6272 C   0  0  0  0  0  0  0  0  0  0  0  0
    2.3496   -0.6848   -1.7577 O   0  0  0  0  0  0  0  0  0  0  0  0
    1.3018    0.3788   -0.0108 O   0  0  0  0  0  0  0  0  0  0  0  0
    0.0940    0.5028   -0.7938 C   0  0  2  0  0  0  0  0  0  0  0  0
   -0.7525    1.6098   -0.1492 C   0  0  0  0  0  0  0  0  0  0  0  0
   -1.2715    1.2087    1.2321 C   0  0  0  0  0  0  0  0  0  0  0  0
   -2.0306   -0.1141    1.1899 C   0  0  0  0  0  0  0  0  0  0  0  0
   -1.1976   -1.2261    0.5523 C   0  0  0  0  0  0  0  0  0  0  0  0
   -0.6788   -0.8309   -0.8341 C   0  0  1  0  0  0  0  0  0  0  0  0
   -1.7843   -0.7148   -1.7333 O   0  0  0  0  0  0  0  0  0  0  0  0
  1  2  1  0
  2  3  2  0
  2  4  1  0
  5  4  1  1
  5  6  1  0
  6  7  1  0
  7  8  1  0
  8  9  1  0
  9 10  1  0
 10 11  1  6
 10  5  1  0
M  END
