
     RDKit          3D

 10 10  0  0  0  0  0  0  0  0999 V2000
   -2.2448    0.5457   -0.5905 C   0  0  0  0  0  0  0  0  0  0  0  0
   -1.9840   -0.7497    0.1687 C   0  0  2  0  0  0  0  0  0  0  0  0
   -0.8042   -0.6682    1.1542 C   0  0  0  0  0  0  0  0  0  0  0  0
    0.4936   -0.1470    0.5775 C   0  0  0  0  0  0  0  0  0  0  0  0
    0.9738    1.1213    0.9333 C   0  0  0  0  0  0  0  0  0  0  0  0
    2.1716    1.6009    0.3997 C   0  0  0  0  0  0  0  0  0  0  0  0
    2.9017    0.8185   -0.4928 C   0  0  0  0  0  0  0  0  0  0  0  0
    2.4352   -0.4442   -0.8522 C   0  0  0  0  0  0  0  0  0  0  0  0
    1.2383   -0.9249   -0.3192 C   0  0  0  0  0  0  0  0  0  0  0  0
   -1.7875   -1.8230   -0.7531 O   0  0  0  0  0  0  0  0  0  0  0  0
  2  1  1  6
  2  3  1  0
  3  4  1  0
  4  5  2  0
  5  6  1  0
  6  7  2  0
  7  8  1  0
  8  9  2  0
  2 10  1  0
  9  4  1  0
M  END
