
     RDKit          3D

 10  9  0  0  0  0  0  0  0  0999 V2000
   -0.2642    0.0457   -0.7198 C   0  0  0  0  0  0  0  0  0  0  0  0
    0.6310    0.9458    0.1296 C   0  0  0  0  0  0  0  0  0  0  0  0
    1.6388    1.6730   -0.7186 C   0  0  0  0  0  0  0  0  0  0  0  0
    1.9270    1.4488   -1.8809 O   0  0  0  0  0  0  0  0  0  0  0  0
    2.2643    2.6480   -0.0313 O   0  0  0  0  0  0  0  0  0  0  0  0
   -1.3939   -0.6064    0.0749 C   0  0  2  0  0  0  0  0  0  0  0  0
   -0.8893   -1.7380    0.9667 C   0  0  0  0  0  0  0  0  0  0  0  0
   -0.9683   -2.9305    0.7113 O   0  0  0  0  0  0  0  0  0  0  0  0
   -0.3203   -1.3152    2.1105 O   0  0  0  0  0  0  0  0  0  0  0  0
   -2.3417   -1.1309   -0.8629 O   0  0  0  0  0  0  0  0  0  0  0  0
  1  2  1  0
  2  3  1  0
  3  4  2  0
  3  5  1  0
  1  6  1  0
  6  7  1  0
  7  8  2  0
  7  9  1  0
  6 10  1  6
M  END
