
     RDKit          3D

 10 10  0  0  0  0  0  0  0  0999 V2000
   -1.6928   -1.1986    1.2710 C   0  0  0  0  0  0  0  0  0  0  0  0
   -1.3415   -0.9353   -0.1935 C   0  0  1  0  0  0  0  0  0  0  0  0
   -1.7958    0.4489   -0.6768 C   0  0  0  0  0  0  0  0  0  0  0  0
   -0.8483    1.5912   -0.3130 C   0  0  1  0  0  0  0  0  0  0  0  0
   -0.9194    1.8924    1.0738 O   0  0  0  0  0  0  0  0  0  0  0  0
    0.5968    1.2905   -0.7137 C   0  0  0  0  0  0  0  0  0  0  0  0
    1.1424   -0.0744   -0.2303 C   0  0  0  0  0  0  0  0  0  0  0  0
    1.5227   -0.0353    1.2609 C   0  0  0  0  0  0  0  0  0  0  0  0
    2.4481   -0.3734   -1.0050 C   0  0  0  0  0  0  0  0  0  0  0  0
    0.1329   -1.2069   -0.5357 C   0  0  0  0  0  0  0  0  0  0  0  0
  2  1  1  1
  2  3  1  0
  3  4  1  0
  4  5  1  1
  4  6  1  0
  6  7  1  0
  7  8  1  0
  7  9  1  0
  7 10  1  0
 10  2  1  0
M  END
