
     RDKit          3D

  8  8  0  0  0  0  0  0  0  0999 V2000
   -2.4038    0.6918   -0.0102 C   0  0  0  0  0  0  0  0  0  0  0  0
   -0.9883    0.2451   -0.3692 C   0  0  2  0  0  0  0  0  0  0  0  0
   -0.7497   -1.2156    0.0218 C   0  0  0  0  0  0  0  0  0  0  0  0
    0.6249   -1.7104   -0.4378 C   0  0  0  0  0  0  0  0  0  0  0  0
    1.6860   -0.6114   -0.4851 C   0  0  0  0  0  0  0  0  0  0  0  0
    1.4070    0.4887    0.5301 C   0  0  1  0  0  0  0  0  0  0  0  0
    2.4527    1.4525    0.4738 O   0  0  0  0  0  0  0  0  0  0  0  0
    0.0589    1.1722    0.2731 C   0  0  0  0  0  0  0  0  0  0  0  0
  2  1  1  1
  2  3  1  0
  3  4  1  0
  4  5  1  0
  5  6  1  0
  6  7  1  6
  6  8  1  0
  8  2  1  0
M  END
