
     RDKit          3D

 10 10  0  0  0  0  0  0  0  0999 V2000
   -2.2068   -0.8668    0.6959 C   0  0  0  0  0  0  0  0  0  0  0  0
   -1.9879    0.3965   -0.1269 C   0  0  1  0  0  0  0  0  0  0  0  0
   -0.8920    0.2326   -1.1907 C   0  0  0  0  0  0  0  0  0  0  0  0
    0.4994    0.1158   -0.6216 C   0  0  0  0  0  0  0  0  0  0  0  0
    1.1516   -1.1239   -0.5864 C   0  0  0  0  0  0  0  0  0  0  0  0
    2.4357   -1.2330   -0.0503 C   0  0  0  0  0  0  0  0  0  0  0  0
    3.0799   -0.1053    0.4546 C   0  0  0  0  0  0  0  0  0  0  0  0
    2.4411    1.1327    0.4237 C   0  0  0  0  0  0  0  0  0  0  0  0
    1.1569    1.2439   -0.1116 C   0  0  0  0  0  0  0  0  0  0  0  0
   -3.2260    0.7044   -0.7744 O   0  0  0  0  0  0  0  0  0  0  0  0
  2  1  1  6
  2  3  1  0
  3  4  1  0
  4  5  2  0
  5  6  1  0
  6  7  2  0
  7  8  1  0
  8  9  2  0
  2 10  1  0
  9  4  1  0
M  END
