
     RDKit          3D

  8  8  0  0  0  0  0  0  0  0999 V2000
    0.9464   -1.2297    0.5053 C   0  0  0  0  0  0  0  0  0  0  0  0
    1.4030    0.1581    0.9487 C   0  0  0  0  0  0  0  0  0  0  0  0
    0.2623    1.1691    0.9005 C   0  0  0  0  0  0  0  0  0  0  0  0
   -0.3913    1.2116   -0.4813 C   0  0  1  0  0  0  0  0  0  0  0  0
   -0.8487   -0.1812   -0.9460 C   0  0  1  0  0  0  0  0  0  0  0  0
    0.2900   -1.1973   -0.8760 C   0  0  0  0  0  0  0  0  0  0  0  0
   -1.9347   -0.6035   -0.1074 O   0  0  0  0  0  0  0  0  0  0  0  0
   -1.5231    2.0818   -0.4268 O   0  0  0  0  0  0  0  0  0  0  0  0
  1  2  1  0
  2  3  1  0
  3  4  1  0
  4  5  1  0
  5  6  1  0
  5  7  1  1
  4  8  1  1
  6  1  1  0
M  END
