
     RDKit          3D

 12 12  0  0  0  0  0  0  0  0999 V2000
   -2.4036    0.5771   -1.7374 C   0  0  0  0  0  0  0  0  0  0  0  0
   -1.4336    0.3840   -0.5492 C   0  0  0  0  0  0  0  0  0  0  0  0
   -1.2631    1.7453    0.1510 C   0  0  0  0  0  0  0  0  0  0  0  0
   -2.0927   -0.6034    0.4323 C   0  0  0  0  0  0  0  0  0  0  0  0
   -0.0683   -0.1396   -1.0976 C   0  0  1  0  0  0  0  0  0  0  0  0
    1.0534   -0.2987   -0.0852 C   0  0  0  0  0  0  0  0  0  0  0  0
    1.1568   -1.4416    0.7237 C   0  0  0  0  0  0  0  0  0  0  0  0
    2.1966   -1.5729    1.6457 C   0  0  0  0  0  0  0  0  0  0  0  0
    3.1492   -0.5646    1.7709 C   0  0  0  0  0  0  0  0  0  0  0  0
    3.0631    0.5749    0.9745 C   0  0  0  0  0  0  0  0  0  0  0  0
    2.0234    0.7071    0.0519 C   0  0  0  0  0  0  0  0  0  0  0  0
   -0.2585   -1.3795   -1.7892 O   0  0  0  0  0  0  0  0  0  0  0  0
  1  2  1  0
  2  3  1  0
  2  4  1  0
  2  5  1  0
  5  6  1  0
  6  7  2  0
  7  8  1  0
  8  9  2  0
  9 10  1  0
 10 11  2  0
  5 12  1  1
 11  6  1  0
M  END
