
     RDKit          3D

 11 11  0  0  0  0  0  0  0  0999 V2000
   -2.4157    0.8997    0.7141 C   0  0  0  0  0  0  0  0  0  0  0  0
   -1.5580   -0.1457   -0.0386 C   0  0  0  0  0  0  0  0  0  0  0  0
   -1.6871   -1.4889    0.7056 C   0  0  0  0  0  0  0  0  0  0  0  0
   -2.1987   -0.3114   -1.4348 C   0  0  0  0  0  0  0  0  0  0  0  0
   -0.0529    0.3462   -0.1426 C   0  0  1  0  0  0  0  0  0  0  0  0
    0.5348    0.7477    1.2343 C   0  0  0  0  0  0  0  0  0  0  0  0
    1.9682    1.2657    1.1438 C   0  0  0  0  0  0  0  0  0  0  0  0
    2.8846    0.2553    0.4747 C   0  0  0  0  0  0  0  0  0  0  0  0
    2.3559   -0.1172   -0.8992 C   0  0  0  0  0  0  0  0  0  0  0  0
    0.9175   -0.6430   -0.8469 C   0  0  2  0  0  0  0  0  0  0  0  0
    0.5132   -0.8738   -2.1923 O   0  0  0  0  0  0  0  0  0  0  0  0
  1  2  1  0
  2  3  1  0
  2  4  1  0
  5  2  1  1
  5  6  1  0
  6  7  1  0
  7  8  1  0
  8  9  1  0
  9 10  1  0
 10 11  1  6
 10  5  1  0
M  END
