
     RDKit          3D

  7  6  0  0  0  0  0  0  0  0999 V2000
    2.1850    1.2354    0.1798 C   0  0  0  0  0  0  0  0  0  0  0  0
    1.7853   -0.1077    0.7695 C   0  0  0  0  0  0  0  0  0  0  0  0
    0.9642   -0.9752   -0.1859 C   0  0  0  0  0  0  0  0  0  0  0  0
   -0.3570   -0.3685   -0.6778 C   0  0  1  0  0  0  0  0  0  0  0  0
   -0.9508   -1.2959   -1.5897 O   0  0  0  0  0  0  0  0  0  0  0  0
   -1.3452   -0.0637    0.4539 C   0  0  0  0  0  0  0  0  0  0  0  0
   -2.6574    0.5128   -0.0632 C   0  0  0  0  0  0  0  0  0  0  0  0
  1  2  1  0
  2  3  1  0
  3  4  1  0
  4  5  1  6
  4  6  1  0
  6  7  1  0
M  END
