
     RDKit          3D

 11 10  0  0  0  0  0  0  0  0999 V2000
    2.9947    1.0368   -0.0381 C   0  0  0  0  0  0  0  0  0  0  0  0
    2.3667   -0.2585   -0.4743 C   0  0  0  0  0  0  0  0  0  0  0  0
    1.2795   -0.8155    0.0940 C   0  0  0  0  0  0  0  0  0  0  0  0
    0.5047   -0.2936    1.2702 C   0  0  0  0  0  0  0  0  0  0  0  0
   -0.5470    0.7742    0.9446 C   0  0  0  0  0  0  0  0  0  0  0  0
   -1.7883    0.3613    0.1239 C   0  0  1  0  0  0  0  0  0  0  0  0
   -1.4735    0.0852   -1.3504 C   0  0  0  0  0  0  0  0  0  0  0  0
   -2.5116   -0.8213    0.7354 C   0  0  0  0  0  0  0  0  0  0  0  0
   -3.6474   -0.7895    1.4484 C   0  0  0  0  0  0  0  0  0  0  0  0
   -2.6600    1.5032    0.1384 O   0  0  0  0  0  0  0  0  0  0  0  0
    3.0510   -0.9196   -1.6416 C   0  0  0  0  0  0  0  0  0  0  0  0
  1  2  1  0
  2  3  2  3
  3  4  1  0
  4  5  1  0
  5  6  1  0
  6  7  1  6
  6  8  1  0
  8  9  2  0
  6 10  1  0
  2 11  1  0
M  END
