
     RDKit          3D

  6  5  0  0  0  0  0  0  0  0999 V2000
   -1.1434   -0.7076    0.5621 C   0  0  0  0  0  0  0  0  0  0  0  0
   -0.2223    0.4536    0.2142 C   0  0  1  0  0  0  0  0  0  0  0  0
    1.1817   -0.0477   -0.1396 C   0  0  0  0  0  0  0  0  0  0  0  0
    1.7710    0.1334   -1.1950 O   0  0  0  0  0  0  0  0  0  0  0  0
    1.7792   -0.7154    0.8667 O   0  0  0  0  0  0  0  0  0  0  0  0
   -0.7979    1.2072   -0.9228 N   0  0  0  0  0  0  0  0  0  0  0  0
  2  1  1  6
  2  3  1  0
  3  4  2  0
  3  5  1  0
  2  6  1  0
M  END
