
     RDKit          3D

  8  7  0  0  0  0  0  0  0  0999 V2000
   -1.1750    1.0023   -0.9724 C   0  0  0  0  0  0  0  0  0  0  0  0
   -0.6556   -0.1093   -0.0491 C   0  0  0  0  0  0  0  0  0  0  0  0
   -1.6061   -0.2293    1.1490 C   0  0  0  0  0  0  0  0  0  0  0  0
    0.8091    0.1578    0.3804 C   0  0  2  0  0  0  0  0  0  0  0  0
    1.7260    0.2246   -0.8513 C   0  0  0  0  0  0  0  0  0  0  0  0
    2.1271    1.2373   -1.4033 O   0  0  0  0  0  0  0  0  0  0  0  0
    2.0423   -0.9941   -1.3489 O   0  0  0  0  0  0  0  0  0  0  0  0
    1.3375   -0.8730    1.3030 N   0  0  0  0  0  0  0  0  0  0  0  0
  1  2  1  0
  2  3  1  0
  2  4  1  0
  4  5  1  0
  5  6  2  0
  5  7  1  0
  4  8  1  1
M  END
