
     RDKit          3D

 11 11  0  0  0  0  0  0  0  0999 V2000
    3.9216    0.1468    0.2964 C   0  0  0  0  0  0  0  0  0  0  0  0
    2.6427   -0.2876   -0.3513 C   0  0  0  0  0  0  0  0  0  0  0  0
    2.5677   -1.1328   -1.2318 O   0  0  0  0  0  0  0  0  0  0  0  0
    1.5980    0.3981    0.1815 O   0  0  0  0  0  0  0  0  0  0  0  0
    0.2904    0.0626   -0.3251 C   0  0  1  0  0  0  0  0  0  0  0  0
   -0.2537   -1.1717    0.4027 C   0  0  0  0  0  0  0  0  0  0  0  0
   -1.6741   -1.4995   -0.0506 C   0  0  0  0  0  0  0  0  0  0  0  0
   -2.6127   -0.3028    0.0897 C   0  0  0  0  0  0  0  0  0  0  0  0
   -2.0588    0.9447   -0.6030 C   0  0  0  0  0  0  0  0  0  0  0  0
   -0.6423    1.2742   -0.1283 C   0  0  1  0  0  0  0  0  0  0  0  0
   -0.6939    1.6476    1.2534 O   0  0  0  0  0  0  0  0  0  0  0  0
  1  2  1  0
  2  3  2  0
  2  4  1  0
  5  4  1  1
  5  6  1  0
  6  7  1  0
  7  8  1  0
  8  9  1  0
  9 10  1  0
 10 11  1  1
 10  5  1  0
M  END
