
     RDKit          3D

  6  5  0  0  0  0  0  0  0  0999 V2000
    1.9197   -0.0866   -0.0099 C   0  0  0  0  0  0  0  0  0  0  0  0
    0.5065    0.3563    0.3511 C   0  0  1  0  0  0  0  0  0  0  0  0
   -0.5213   -0.0765   -0.7127 C   0  0  2  0  0  0  0  0  0  0  0  0
   -1.9187    0.4511   -0.4099 C   0  0  0  0  0  0  0  0  0  0  0  0
   -0.5914   -1.5048   -0.7539 O   0  0  0  0  0  0  0  0  0  0  0  0
    0.1511   -0.2465    1.6023 O   0  0  0  0  0  0  0  0  0  0  0  0
  2  1  1  6
  2  3  1  0
  3  4  1  1
  3  5  1  0
  2  6  1  0
M  END
