
     RDKit          3D

 11 10  0  0  0  0  0  0  0  0999 V2000
   -3.0517    0.9990   -1.4531 C   0  0  0  0  0  0  0  0  0  0  0  0
   -3.2573   -0.0243   -0.3470 C   0  0  0  0  0  0  0  0  0  0  0  0
   -2.0542   -0.9460   -0.1357 C   0  0  0  0  0  0  0  0  0  0  0  0
   -0.8099   -0.2126    0.3738 C   0  0  0  0  0  0  0  0  0  0  0  0
    0.3276   -1.1985    0.6693 C   0  0  0  0  0  0  0  0  0  0  0  0
    1.6396   -0.5351    1.1208 C   0  0  2  0  0  0  0  0  0  0  0  0
    1.4968    0.1958    2.4521 C   0  0  0  0  0  0  0  0  0  0  0  0
    2.0798    0.4341    0.1502 O   0  0  0  0  0  0  0  0  0  0  0  0
    2.7616   -0.0548   -0.9212 C   0  0  0  0  0  0  0  0  0  0  0  0
    3.0345   -1.2297   -1.1202 O   0  0  0  0  0  0  0  0  0  0  0  0
    3.1351    1.0671   -1.8408 C   0  0  0  0  0  0  0  0  0  0  0  0
  1  2  1  0
  2  3  1  0
  3  4  1  0
  4  5  1  0
  5  6  1  0
  6  7  1  1
  6  8  1  0
  8  9  1  0
  9 10  2  0
  9 11  1  0
M  END
