
     RDKit          3D

  6  5  0  0  0  0  0  0  0  0999 V2000
   -2.2385   -0.3982   -0.2896 C   0  0  0  0  0  0  0  0  0  0  0  0
   -1.4080    0.8560   -0.0658 C   0  0  0  0  0  0  0  0  0  0  0  0
   -0.0674    0.5856    0.6265 C   0  0  0  0  0  0  0  0  0  0  0  0
    0.8975   -0.2867   -0.1831 C   0  0  2  0  0  0  0  0  0  0  0  0
    2.2170   -0.4749    0.5549 C   0  0  0  0  0  0  0  0  0  0  0  0
    1.1563    0.3394   -1.4361 O   0  0  0  0  0  0  0  0  0  0  0  0
  1  2  1  0
  2  3  1  0
  3  4  1  0
  4  5  1  1
  4  6  1  0
M  END
