
     RDKit          3D

 11 10  0  0  0  0  0  0  0  0999 V2000
    4.2842    1.5655    0.4941 C   0  0  0  0  0  0  0  0  0  0  0  0
    2.9896    1.2697   -0.2462 C   0  0  0  0  0  0  0  0  0  0  0  0
    2.1090    0.2937    0.5336 C   0  0  0  0  0  0  0  0  0  0  0  0
    0.8076   -0.0012   -0.2149 C   0  0  0  0  0  0  0  0  0  0  0  0
   -0.0741   -0.9808    0.5678 C   0  0  0  0  0  0  0  0  0  0  0  0
   -1.3689   -1.3180   -0.1846 C   0  0  1  0  0  0  0  0  0  0  0  0
   -2.1855   -2.3462    0.5932 C   0  0  0  0  0  0  0  0  0  0  0  0
   -2.1390   -0.1070   -0.3113 O   0  0  0  0  0  0  0  0  0  0  0  0
   -3.0066   -0.0541   -1.3585 C   0  0  0  0  0  0  0  0  0  0  0  0
   -3.1866   -0.9380   -2.1835 O   0  0  0  0  0  0  0  0  0  0  0  0
   -3.7237    1.2611   -1.3584 C   0  0  0  0  0  0  0  0  0  0  0  0
  1  2  1  0
  2  3  1  0
  3  4  1  0
  4  5  1  0
  5  6  1  0
  6  7  1  1
  6  8  1  0
  8  9  1  0
  9 10  2  0
  9 11  1  0
M  END
