
     RDKit          3D

  8  8  0  0  0  0  0  0  0  0999 V2000
   -2.4125    0.1562   -0.2068 C   0  0  0  0  0  0  0  0  0  0  0  0
   -0.8988    0.1102   -0.3897 C   0  0  2  0  0  0  0  0  0  0  0  0
   -0.3160   -1.1553    0.2453 C   0  0  0  0  0  0  0  0  0  0  0  0
    1.1966   -1.2687    0.0361 C   0  0  0  0  0  0  0  0  0  0  0  0
    1.8999    0.0845   -0.0758 C   0  0  0  0  0  0  0  0  0  0  0  0
    1.1927    1.1684    0.7233 C   0  0  0  0  0  0  0  0  0  0  0  0
   -0.2331    1.3346    0.2358 C   0  0  0  0  0  0  0  0  0  0  0  0
   -0.8129    2.4147    0.3480 O   0  0  0  0  0  0  0  0  0  0  0  0
  2  1  1  1
  2  3  1  0
  3  4  1  0
  4  5  1  0
  5  6  1  0
  6  7  1  0
  7  8  2  0
  7  2  1  0
M  END
