
     RDKit          3D

 11 11  0  0  0  0  0  0  0  0999 V2000
   -0.4729    0.2293    0.4074 C   0  0  2  0  0  0  0  0  0  0  0  0
    0.3467   -1.0631    0.4060 C   0  0  0  0  0  0  0  0  0  0  0  0
    1.4008   -1.1534   -0.7018 C   0  0  0  0  0  0  0  0  0  0  0  0
    2.8062   -0.7091   -0.2859 C   0  0  0  0  0  0  0  0  0  0  0  0
    2.9182    0.7607    0.0791 C   0  0  0  0  0  0  0  0  0  0  0  0
   -1.4001    0.1939    1.5033 O   0  0  0  0  0  0  0  0  0  0  0  0
   -2.4779    0.9750    1.1969 C   0  0  0  0  0  0  0  0  0  0  0  0
   -3.3802    1.2407    1.9731 O   0  0  0  0  0  0  0  0  0  0  0  0
   -2.3636    1.4744   -0.2137 C   0  0  0  0  0  0  0  0  0  0  0  0
   -1.3424    0.5199   -0.8127 C   0  0  2  0  0  0  0  0  0  0  0  0
   -2.0400   -0.7041   -1.4126 C   0  0  0  0  0  0  0  0  0  0  0  0
  1  2  1  6
  2  3  1  0
  3  4  1  0
  4  5  1  0
  1  6  1  0
  6  7  1  0
  7  8  2  0
  7  9  1  0
  9 10  1  0
 10 11  1  1
 10  1  1  0
M  END
