
     RDKit          3D

 11 11  0  0  0  0  0  0  0  0999 V2000
   -0.5620    0.4451   -0.8002 C   0  0  2  0  0  0  0  0  0  0  0  0
    0.4297    1.3452   -0.0485 C   0  0  0  0  0  0  0  0  0  0  0  0
    1.4884    0.6172    0.7840 C   0  0  0  0  0  0  0  0  0  0  0  0
    2.3504   -0.3466   -0.0312 C   0  0  0  0  0  0  0  0  0  0  0  0
    3.4668   -0.9420    0.8133 C   0  0  0  0  0  0  0  0  0  0  0  0
   -1.4699    1.2945   -1.5232 O   0  0  0  0  0  0  0  0  0  0  0  0
   -2.6438    1.4106   -0.8361 C   0  0  0  0  0  0  0  0  0  0  0  0
   -3.5627    2.1435   -1.1619 O   0  0  0  0  0  0  0  0  0  0  0  0
   -2.6170    0.5370    0.3819 C   0  0  0  0  0  0  0  0  0  0  0  0
   -1.4647   -0.4057    0.0857 C   0  0  1  0  0  0  0  0  0  0  0  0
   -1.9544   -1.6517   -0.6595 C   0  0  0  0  0  0  0  0  0  0  0  0
  1  2  1  1
  2  3  1  0
  3  4  1  0
  4  5  1  0
  1  6  1  0
  6  7  1  0
  7  8  2  0
  7  9  1  0
  9 10  1  0
 10 11  1  6
 10  1  1  0
M  END
