
     RDKit          3D

 11 11  0  0  0  0  0  0  0  0999 V2000
   -2.2369    1.3988    0.3248 C   0  0  0  0  0  0  0  0  0  0  0  0
   -1.5672    0.0223    0.1109 C   0  0  0  0  0  0  0  0  0  0  0  0
   -1.9805   -0.4996   -1.2773 C   0  0  0  0  0  0  0  0  0  0  0  0
   -2.1518   -0.9381    1.1714 C   0  0  0  0  0  0  0  0  0  0  0  0
   -0.0071    0.1472    0.3022 C   0  0  2  0  0  0  0  0  0  0  0  0
    0.6272    1.2824   -0.5434 C   0  0  0  0  0  0  0  0  0  0  0  0
    2.1482    1.1708   -0.6974 C   0  0  0  0  0  0  0  0  0  0  0  0
    2.7895    0.4260    0.4628 C   0  0  0  0  0  0  0  0  0  0  0  0
    2.2441   -0.9980    0.6088 C   0  0  0  0  0  0  0  0  0  0  0  0
    0.7962   -1.1598    0.1159 C   0  0  2  0  0  0  0  0  0  0  0  0
    0.8204   -1.5250   -1.2635 O   0  0  0  0  0  0  0  0  0  0  0  0
  1  2  1  0
  2  3  1  0
  2  4  1  0
  5  2  1  6
  5  6  1  0
  6  7  1  0
  7  8  1  0
  8  9  1  0
  9 10  1  0
 10 11  1  6
 10  5  1  0
M  END
