
     RDKit          3D

  8  8  0  0  0  0  0  0  0  0999 V2000
    1.7206    0.5699   -1.1690 O   0  0  0  0  0  0  0  0  0  0  0  0
    1.3405    0.1341    0.1426 C   0  0  2  0  0  0  0  0  0  0  0  0
    0.7438   -1.2712    0.0203 C   0  0  0  0  0  0  0  0  0  0  0  0
   -0.6092   -1.2655   -0.6905 C   0  0  0  0  0  0  0  0  0  0  0  0
   -1.5908   -0.3005   -0.0330 C   0  0  0  0  0  0  0  0  0  0  0  0
   -1.0100    1.1090    0.0708 C   0  0  0  0  0  0  0  0  0  0  0  0
    0.3579    1.1436    0.7614 C   0  0  1  0  0  0  0  0  0  0  0  0
    0.1784    0.8461    2.5203 Cl  0  0  0  0  0  0  0  0  0  0  0  0
  2  1  1  6
  2  3  1  0
  3  4  1  0
  4  5  1  0
  5  6  1  0
  6  7  1  0
  7  8  1  1
  7  2  1  0
M  END
