
     RDKit          3D

  7  7  0  0  0  0  0  0  0  0999 V2000
   -2.1494   -0.5499    0.2403 C   0  0  0  0  0  0  0  0  0  0  0  0
   -0.8346    0.1801    0.4576 C   0  0  2  0  0  0  0  0  0  0  0  0
   -0.3781    0.9676   -0.7667 C   0  0  0  0  0  0  0  0  0  0  0  0
    1.0984    1.2027   -0.4802 C   0  0  0  0  0  0  0  0  0  0  0  0
    1.5686   -0.1257    0.1037 C   0  0  2  0  0  0  0  0  0  0  0  0
    2.0278   -0.9572   -0.9575 O   0  0  0  0  0  0  0  0  0  0  0  0
    0.3384   -0.7621    0.7615 C   0  0  0  0  0  0  0  0  0  0  0  0
  2  1  1  6
  2  3  1  0
  3  4  1  0
  4  5  1  0
  5  6  1  6
  5  7  1  0
  7  2  1  0
M  END
