
     RDKit          3D

  8  8  0  0  0  0  0  0  0  0999 V2000
   -2.4406    0.5660   -0.1358 C   0  0  0  0  0  0  0  0  0  0  0  0
   -1.0024    0.2591    0.2751 C   0  0  1  0  0  0  0  0  0  0  0  0
   -0.7281   -1.2543    0.2194 C   0  0  0  0  0  0  0  0  0  0  0  0
    0.7499   -1.6035    0.0187 C   0  0  0  0  0  0  0  0  0  0  0  0
    1.6746   -0.5279    0.5777 C   0  0  0  0  0  0  0  0  0  0  0  0
    1.4389    0.8264   -0.0991 C   0  0  1  0  0  0  0  0  0  0  0  0
    2.3265    0.9486   -1.2093 O   0  0  0  0  0  0  0  0  0  0  0  0
   -0.0001    1.0221   -0.5927 C   0  0  0  0  0  0  0  0  0  0  0  0
  2  1  1  6
  2  3  1  0
  3  4  1  0
  4  5  1  0
  5  6  1  0
  6  7  1  6
  6  8  1  0
  8  2  1  0
M  END
