
     RDKit          3D

  7  7  0  0  0  0  0  0  0  0999 V2000
    2.2822   -0.1645    0.3602 C   0  0  0  0  0  0  0  0  0  0  0  0
    0.7774   -0.1384    0.5660 C   0  0  1  0  0  0  0  0  0  0  0  0
    0.1580    1.2334    0.3063 C   0  0  0  0  0  0  0  0  0  0  0  0
   -1.3061    0.9603   -0.0531 C   0  0  0  0  0  0  0  0  0  0  0  0
   -1.4147   -0.5477   -0.2892 C   0  0  2  0  0  0  0  0  0  0  0  0
   -2.0261   -1.1690    0.8374 O   0  0  0  0  0  0  0  0  0  0  0  0
    0.0217   -1.0426   -0.4066 C   0  0  0  0  0  0  0  0  0  0  0  0
  2  1  1  6
  2  3  1  0
  3  4  1  0
  4  5  1  0
  5  6  1  1
  5  7  1  0
  7  2  1  0
M  END
