
     RDKit          3D

  9  8  0  0  0  0  0  0  0  0999 V2000
   -4.1832   -0.2210   -0.5567 C   0  0  0  0  0  0  0  0  0  0  0  0
   -3.1219    0.1011    0.4833 C   0  0  0  0  0  0  0  0  0  0  0  0
   -1.7246    0.1458   -0.1370 C   0  0  0  0  0  0  0  0  0  0  0  0
   -0.6617    0.4665    0.9162 C   0  0  0  0  0  0  0  0  0  0  0  0
    0.7442    0.6448    0.3321 C   0  0  0  0  0  0  0  0  0  0  0  0
    1.3299   -0.6503   -0.2443 C   0  0  0  0  0  0  0  0  0  0  0  0
    2.7543   -0.5079   -0.7960 C   0  0  2  0  0  0  0  0  0  0  0  0
    3.7806   -0.1187    0.2593 C   0  0  0  0  0  0  0  0  0  0  0  0
    2.7588    0.4617   -1.8397 O   0  0  0  0  0  0  0  0  0  0  0  0
  1  2  1  0
  2  3  1  0
  3  4  1  0
  4  5  1  0
  5  6  1  0
  6  7  1  0
  7  8  1  1
  7  9  1  0
M  END
