
     RDKit          3D

 10  9  0  0  0  0  0  0  0  0999 V2000
   -0.1249   -0.0674   -0.6359 C   0  0  0  0  0  0  0  0  0  0  0  0
    1.2308    0.0493    0.0651 C   0  0  0  0  0  0  0  0  0  0  0  0
    2.2876    0.5767   -0.8672 C   0  0  0  0  0  0  0  0  0  0  0  0
    2.1539    0.8898   -2.0370 O   0  0  0  0  0  0  0  0  0  0  0  0
    3.4847    0.6828   -0.2591 O   0  0  0  0  0  0  0  0  0  0  0  0
   -1.1910   -0.7261    0.2461 C   0  0  1  0  0  0  0  0  0  0  0  0
   -1.5287    0.1669    1.4450 C   0  0  0  0  0  0  0  0  0  0  0  0
   -2.2866    1.1252    1.4482 O   0  0  0  0  0  0  0  0  0  0  0  0
   -0.8538   -0.1744    2.5615 O   0  0  0  0  0  0  0  0  0  0  0  0
   -2.4234   -0.9640   -0.5356 N   0  0  0  0  0  0  0  0  0  0  0  0
  1  2  1  0
  2  3  1  0
  3  4  2  0
  3  5  1  0
  1  6  1  0
  6  7  1  0
  7  8  2  0
  7  9  1  0
  6 10  1  6
M  END
