
     RDKit          3D

 12 12  0  0  0  0  0  0  0  0999 V2000
    3.0591    1.1754    0.8475 C   0  0  0  0  0  0  0  0  0  0  0  0
    1.9787    0.5870   -0.0469 C   0  0  0  0  0  0  0  0  0  0  0  0
    1.4031   -0.6999    0.5468 C   0  0  0  0  0  0  0  0  0  0  0  0
    0.3718   -1.3816   -0.3644 C   0  0  1  0  0  0  0  0  0  0  0  0
    0.0075   -2.6364    0.2138 O   0  0  0  0  0  0  0  0  0  0  0  0
   -0.8911   -0.5703   -0.5588 C   0  0  0  0  0  0  0  0  0  0  0  0
   -1.1411    0.0668   -1.7848 C   0  0  0  0  0  0  0  0  0  0  0  0
   -2.2954    0.8332   -1.9660 C   0  0  0  0  0  0  0  0  0  0  0  0
   -3.2088    0.9678   -0.9229 C   0  0  0  0  0  0  0  0  0  0  0  0
   -4.6293    1.9128   -1.1475 Cl  0  0  0  0  0  0  0  0  0  0  0  0
   -2.9794    0.3423    0.2995 C   0  0  0  0  0  0  0  0  0  0  0  0
   -1.8250   -0.4229    0.4799 C   0  0  0  0  0  0  0  0  0  0  0  0
  1  2  1  0
  2  3  1  0
  3  4  1  0
  4  5  1  1
  4  6  1  0
  6  7  2  0
  7  8  1  0
  8  9  2  0
  9 10  1  0
  9 11  1  0
 11 12  2  0
 12  6  1  0
M  END
