
     RDKit          3D

  7  6  0  0  0  0  0  0  0  0999 V2000
    2.6798   -0.4824   -0.5414 C   0  0  0  0  0  0  0  0  0  0  0  0
    1.3155   -0.5872    0.1246 C   0  0  0  0  0  0  0  0  0  0  0  0
    0.6084    0.7713    0.1586 C   0  0  0  0  0  0  0  0  0  0  0  0
   -0.7627    0.7635    0.8504 C   0  0  2  0  0  0  0  0  0  0  0  0
   -0.5923    0.4776    2.2394 O   0  0  0  0  0  0  0  0  0  0  0  0
   -1.7973   -0.2074    0.2703 C   0  0  0  0  0  0  0  0  0  0  0  0
   -2.1159    0.0441   -1.1940 C   0  0  0  0  0  0  0  0  0  0  0  0
  1  2  1  0
  2  3  1  0
  3  4  1  0
  4  5  1  1
  4  6  1  0
  6  7  1  0
M  END
