
     RDKit          3D

  7  7  0  0  0  0  0  0  0  0999 V2000
    1.4120   -0.9234   -0.8489 C   0  0  0  0  0  0  0  0  0  0  0  0
    0.7331   -0.5272    0.4628 C   0  0  1  0  0  0  0  0  0  0  0  0
    0.8359    0.9742    0.7320 C   0  0  0  0  0  0  0  0  0  0  0  0
   -0.3363    1.5994   -0.0248 C   0  0  0  0  0  0  0  0  0  0  0  0
   -1.3415    0.4734   -0.2662 C   0  0  0  0  0  0  0  0  0  0  0  0
   -0.7826   -0.7407    0.4698 C   0  0  1  0  0  0  0  0  0  0  0  0
   -1.1655   -1.9535   -0.1471 O   0  0  0  0  0  0  0  0  0  0  0  0
  2  1  1  6
  2  3  1  0
  3  4  1  0
  4  5  1  0
  5  6  1  0
  6  7  1  6
  6  2  1  0
M  END
