
     RDKit          3D

 11 11  0  0  0  0  0  0  0  0999 V2000
   -2.4588    0.9315   -0.2759 C   0  0  0  0  0  0  0  0  0  0  0  0
   -1.5407   -0.2755    0.0198 C   0  0  0  0  0  0  0  0  0  0  0  0
   -1.6960   -0.6364    1.5099 C   0  0  0  0  0  0  0  0  0  0  0  0
   -2.0899   -1.4568   -0.8156 C   0  0  0  0  0  0  0  0  0  0  0  0
   -0.0341    0.0275   -0.3756 C   0  0  2  0  0  0  0  0  0  0  0  0
    0.8596   -1.2373   -0.3140 C   0  0  0  0  0  0  0  0  0  0  0  0
    2.3026   -0.9703   -0.7353 C   0  0  0  0  0  0  0  0  0  0  0  0
    2.9298    0.1367    0.0953 C   0  0  0  0  0  0  0  0  0  0  0  0
    2.0978    1.4042    0.0110 C   0  0  0  0  0  0  0  0  0  0  0  0
    0.6415    1.1738    0.4283 C   0  0  1  0  0  0  0  0  0  0  0  0
   -0.0455    2.4042    0.2258 O   0  0  0  0  0  0  0  0  0  0  0  0
  1  2  1  0
  2  3  1  0
  2  4  1  0
  5  2  1  1
  5  6  1  0
  6  7  1  0
  7  8  1  0
  8  9  1  0
  9 10  1  0
 10 11  1  6
 10  5  1  0
M  END
