
     RDKit          3D

 12 12  0  0  0  0  0  0  0  0999 V2000
    2.0059   -0.6454    1.4101 C   0  0  0  0  0  0  0  0  0  0  0  0
    1.6301    0.1525    0.1581 C   0  0  1  0  0  0  0  0  0  0  0  0
    1.4967   -0.7514   -1.0727 C   0  0  0  0  0  0  0  0  0  0  0  0
    0.0317   -1.1235   -1.0649 C   0  0  0  0  0  0  0  0  0  0  0  0
   -0.5995    0.1682   -0.5793 C   0  0  2  0  0  0  0  0  0  0  0  0
    0.3211    0.7144    0.3930 O   0  0  0  0  0  0  0  0  0  0  0  0
   -2.0107    0.0678    0.0404 C   0  0  0  0  0  0  0  0  0  0  0  0
   -3.0305   -0.4493   -0.9730 C   0  0  0  0  0  0  0  0  0  0  0  0
   -2.0563   -0.7748    1.3187 C   0  0  0  0  0  0  0  0  0  0  0  0
   -2.4135    1.3981    0.4099 O   0  0  0  0  0  0  0  0  0  0  0  0
    2.6457    1.2469   -0.0760 C   0  0  0  0  0  0  0  0  0  0  0  0
    2.4083    2.5665   -0.0741 C   0  0  0  0  0  0  0  0  0  0  0  0
  2  1  1  1
  2  3  1  0
  3  4  1  0
  4  5  1  0
  5  6  1  0
  5  7  1  1
  7  8  1  0
  7  9  1  0
  7 10  1  0
  2 11  1  0
 11 12  2  0
  6  2  1  0
M  END
