
     RDKit          3D

 10 10  0  0  0  0  0  0  0  0999 V2000
    3.1820   -0.6258   -0.3037 C   0  0  0  0  0  0  0  0  0  0  0  0
    1.7666   -0.8148   -0.3593 O   0  0  0  0  0  0  0  0  0  0  0  0
    1.0745    0.2977   -0.7479 C   0  0  0  0  0  0  0  0  0  0  0  0
    1.5847    1.3728   -1.0292 O   0  0  0  0  0  0  0  0  0  0  0  0
   -0.4183   -0.0150   -0.7859 C   0  0  1  0  0  0  0  0  0  0  0  0
   -0.9505   -0.3355    0.5932 C   0  0  0  0  0  0  0  0  0  0  0  0
   -2.4045    0.0450    0.4867 C   0  0  0  0  0  0  0  0  0  0  0  0
   -2.3663    1.1404   -0.5322 C   0  0  0  0  0  0  0  0  0  0  0  0
   -3.2649    1.9371   -0.7440 O   0  0  0  0  0  0  0  0  0  0  0  0
   -1.1975    1.0951   -1.2305 O   0  0  0  0  0  0  0  0  0  0  0  0
  1  2  1  0
  2  3  1  0
  3  4  2  0
  5  3  1  1
  5  6  1  0
  6  7  1  0
  7  8  1  0
  8  9  2  0
  8 10  1  0
 10  5  1  0
M  END
