
     RDKit          3D

 11 10  0  0  0  0  0  0  0  0999 V2000
   -2.1282    2.1716    0.3632 C   0  0  0  0  0  0  0  0  0  0  0  0
   -2.6736    0.7515    0.3569 C   0  0  0  0  0  0  0  0  0  0  0  0
   -1.6478   -0.2919   -0.0935 C   0  0  0  0  0  0  0  0  0  0  0  0
   -0.4872   -0.4590    0.8928 C   0  0  0  0  0  0  0  0  0  0  0  0
    0.4924   -1.5797    0.4954 C   0  0  2  0  0  0  0  0  0  0  0  0
    1.4540   -1.8618    1.6563 C   0  0  0  0  0  0  0  0  0  0  0  0
    1.2568   -1.3403   -0.8275 C   0  0  0  0  0  0  0  0  0  0  0  0
    2.1952   -0.1321   -0.8696 C   0  0  0  0  0  0  0  0  0  0  0  0
    1.4967    1.1463   -1.2427 C   0  0  0  0  0  0  0  0  0  0  0  0
    0.7572    1.3213   -2.1962 O   0  0  0  0  0  0  0  0  0  0  0  0
    1.7862    2.1606   -0.4063 O   0  0  0  0  0  0  0  0  0  0  0  0
  1  2  1  0
  2  3  1  0
  3  4  1  0
  4  5  1  0
  5  6  1  1
  5  7  1  0
  7  8  1  0
  8  9  1  0
  9 10  2  0
  9 11  1  0
M  END
