
     RDKit          3D

  8  8  0  0  0  0  0  0  0  0999 V2000
    2.2630   -0.4710    1.1948 O   0  0  0  0  0  0  0  0  0  0  0  0
    1.1443   -0.4975    0.3064 C   0  0  1  0  0  0  0  0  0  0  0  0
   -0.0835   -0.9217    1.1130 C   0  0  0  0  0  0  0  0  0  0  0  0
   -1.3570   -0.8773    0.2758 C   0  0  0  0  0  0  0  0  0  0  0  0
   -1.5617    0.4946   -0.3610 C   0  0  0  0  0  0  0  0  0  0  0  0
   -0.3447    0.9219   -1.1787 C   0  0  0  0  0  0  0  0  0  0  0  0
    0.9306    0.8805   -0.3384 C   0  0  2  0  0  0  0  0  0  0  0  0
    2.3438    1.2920   -1.3659 Cl  0  0  0  0  0  0  0  0  0  0  0  0
  2  1  1  1
  2  3  1  0
  3  4  1  0
  4  5  1  0
  5  6  1  0
  6  7  1  0
  7  8  1  6
  7  2  1  0
M  END
