
     RDKit          3D

  5  4  0  0  0  0  0  0  0  0999 V2000
    1.5452   -0.6252   -0.2089 C   0  0  0  0  0  0  0  0  0  0  0  0
    0.6347    0.0705    0.7949 C   0  0  0  0  0  0  0  0  0  0  0  0
   -0.6765    0.5960    0.2005 C   0  0  2  0  0  0  0  0  0  0  0  0
   -1.5654   -0.5014   -0.3664 C   0  0  0  0  0  0  0  0  0  0  0  0
   -0.4073    1.5329   -0.8384 O   0  0  0  0  0  0  0  0  0  0  0  0
  1  2  1  0
  2  3  1  0
  3  4  1  6
  3  5  1  0
M  END
