
     RDKit          3D

  9  8  0  0  0  0  0  0  0  0999 V2000
    3.5075    0.3733    0.9566 C   0  0  0  0  0  0  0  0  0  0  0  0
    2.3541    0.4830   -0.0289 C   0  0  0  0  0  0  0  0  0  0  0  0
    1.7495   -0.8877   -0.3340 C   0  0  0  0  0  0  0  0  0  0  0  0
    0.6594   -0.8481   -1.4093 C   0  0  0  0  0  0  0  0  0  0  0  0
   -0.5539    0.0343   -1.0980 C   0  0  0  0  0  0  0  0  0  0  0  0
   -1.3000   -0.3840    0.1737 C   0  0  0  0  0  0  0  0  0  0  0  0
   -2.5875    0.4232    0.3751 C   0  0  1  0  0  0  0  0  0  0  0  0
   -3.3479   -0.0375    1.6114 C   0  0  0  0  0  0  0  0  0  0  0  0
   -2.2802    1.8076    0.5168 O   0  0  0  0  0  0  0  0  0  0  0  0
  1  2  1  0
  2  3  1  0
  3  4  1  0
  4  5  1  0
  5  6  1  0
  6  7  1  0
  7  8  1  1
  7  9  1  0
M  END
