
     RDKit          3D

  8  8  0  0  0  0  0  0  0  0999 V2000
    2.5631   -0.3936   -0.4680 O   0  0  0  0  0  0  0  0  0  0  0  0
    1.2920   -0.0784    0.0963 C   0  0  1  0  0  0  0  0  0  0  0  0
    0.5743    0.9798   -0.7449 C   0  0  0  0  0  0  0  0  0  0  0  0
   -0.7916    1.3230   -0.1563 C   0  0  0  0  0  0  0  0  0  0  0  0
   -1.6563    0.0836    0.0650 C   0  0  0  0  0  0  0  0  0  0  0  0
   -0.9268   -0.9897    0.8772 C   0  0  0  0  0  0  0  0  0  0  0  0
    0.4422   -1.3487    0.2912 C   0  0  1  0  0  0  0  0  0  0  0  0
    0.2207   -2.2487   -1.2526 Cl  0  0  0  0  0  0  0  0  0  0  0  0
  2  1  1  6
  2  3  1  0
  3  4  1  0
  4  5  1  0
  5  6  1  0
  6  7  1  0
  7  8  1  6
  7  2  1  0
M  END
