
     RDKit          3D

  7  7  0  0  0  0  0  0  0  0999 V2000
    2.0145   -0.4587    0.3564 C   0  0  0  0  0  0  0  0  0  0  0  0
    0.7181    0.1377   -0.1700 C   0  0  1  0  0  0  0  0  0  0  0  0
   -0.0469   -0.8158   -1.0837 C   0  0  0  0  0  0  0  0  0  0  0  0
   -1.4802   -0.2864   -1.0839 C   0  0  0  0  0  0  0  0  0  0  0  0
   -1.6068    0.6107    0.1472 C   0  0  0  0  0  0  0  0  0  0  0  0
   -0.3070    0.4304    0.9238 C   0  0  2  0  0  0  0  0  0  0  0  0
    0.0046    1.6061    1.6470 O   0  0  0  0  0  0  0  0  0  0  0  0
  2  1  1  1
  2  3  1  0
  3  4  1  0
  4  5  1  0
  5  6  1  0
  6  7  1  6
  6  2  1  0
M  END
