
     RDKit          3D

 11 11  0  0  0  0  0  0  0  0999 V2000
   -0.8832   -0.8413   -0.6480 C   0  0  1  0  0  0  0  0  0  0  0  0
    0.3754   -0.8225    0.2324 C   0  0  0  0  0  0  0  0  0  0  0  0
    1.3948    0.2390   -0.1881 C   0  0  0  0  0  0  0  0  0  0  0  0
    2.6411    0.1888    0.6973 C   0  0  0  0  0  0  0  0  0  0  0  0
    3.6622    1.2359    0.2820 C   0  0  0  0  0  0  0  0  0  0  0  0
   -1.4593   -2.1599   -0.5561 O   0  0  0  0  0  0  0  0  0  0  0  0
   -2.5024   -2.1534    0.3245 C   0  0  0  0  0  0  0  0  0  0  0  0
   -3.1052   -3.1503    0.6857 O   0  0  0  0  0  0  0  0  0  0  0  0
   -2.7691   -0.7569    0.7948 C   0  0  0  0  0  0  0  0  0  0  0  0
   -2.0440    0.0671   -0.2529 C   0  0  1  0  0  0  0  0  0  0  0  0
   -1.7151    1.4716    0.2152 C   0  0  0  0  0  0  0  0  0  0  0  0
  1  2  1  1
  2  3  1  0
  3  4  1  0
  4  5  1  0
  1  6  1  0
  6  7  1  0
  7  8  2  0
  7  9  1  0
  9 10  1  0
 10 11  1  1
 10  1  1  0
M  END
