
     RDKit          3D

  9  8  0  0  0  0  0  0  0  0999 V2000
   -3.9053   -0.8566    0.5186 C   0  0  0  0  0  0  0  0  0  0  0  0
   -2.6771   -0.0133    0.2113 C   0  0  0  0  0  0  0  0  0  0  0  0
   -1.4207   -0.6051    0.8512 C   0  0  0  0  0  0  0  0  0  0  0  0
   -0.1729    0.2665    0.6692 C   0  0  0  0  0  0  0  0  0  0  0  0
    0.2563    0.4084   -0.7960 C   0  0  0  0  0  0  0  0  0  0  0  0
    1.6084    1.1023   -1.0338 C   0  0  1  0  0  0  0  0  0  0  0  0
    1.8220    2.1640   -0.1104 O   0  0  0  0  0  0  0  0  0  0  0  0
    2.8276    0.1692   -1.0821 C   0  0  0  0  0  0  0  0  0  0  0  0
    3.0844   -0.6602    0.1662 C   0  0  0  0  0  0  0  0  0  0  0  0
  1  2  1  0
  2  3  1  0
  3  4  1  0
  4  5  1  0
  5  6  1  0
  6  7  1  1
  6  8  1  0
  8  9  1  0
M  END
