
     RDKit          3D

  8  7  0  0  0  0  0  0  0  0999 V2000
   -1.1946    0.8429   -1.0924 C   0  0  0  0  0  0  0  0  0  0  0  0
   -0.6467   -0.1506   -0.0576 C   0  0  0  0  0  0  0  0  0  0  0  0
   -1.6289   -0.2177    1.1189 C   0  0  0  0  0  0  0  0  0  0  0  0
    0.7861    0.2371    0.3874 C   0  0  2  0  0  0  0  0  0  0  0  0
    1.7387    0.2464   -0.8187 C   0  0  0  0  0  0  0  0  0  0  0  0
    2.1023    1.2272   -1.4487 O   0  0  0  0  0  0  0  0  0  0  0  0
    2.1375   -0.9917   -1.1945 O   0  0  0  0  0  0  0  0  0  0  0  0
    1.3387   -0.6756    1.4143 N   0  0  0  0  0  0  0  0  0  0  0  0
  1  2  1  0
  2  3  1  0
  2  4  1  0
  4  5  1  0
  5  6  2  0
  5  7  1  0
  4  8  1  1
M  END
