
     RDKit          3D

  6  5  0  0  0  0  0  0  0  0999 V2000
   -1.1618   -0.6465    0.5969 C   0  0  0  0  0  0  0  0  0  0  0  0
   -0.1866    0.4629    0.2280 C   0  0  1  0  0  0  0  0  0  0  0  0
    1.1706   -0.1157   -0.1851 C   0  0  0  0  0  0  0  0  0  0  0  0
    1.7299    0.0451   -1.2601 O   0  0  0  0  0  0  0  0  0  0  0  0
    1.7645   -0.8319    0.7895 O   0  0  0  0  0  0  0  0  0  0  0  0
   -0.7583    1.2653   -0.8772 N   0  0  0  0  0  0  0  0  0  0  0  0
  2  1  1  6
  2  3  1  0
  3  4  2  0
  3  5  1  0
  2  6  1  0
M  END
