
     RDKit          3D

 10 10  0  0  0  0  0  0  0  0999 V2000
   -1.7177   -1.1520    1.2805 C   0  0  0  0  0  0  0  0  0  0  0  0
   -1.3500   -0.9245   -0.1859 C   0  0  1  0  0  0  0  0  0  0  0  0
   -1.7843    0.4537   -0.7034 C   0  0  0  0  0  0  0  0  0  0  0  0
   -0.8276    1.5932   -0.3554 C   0  0  1  0  0  0  0  0  0  0  0  0
   -0.9080    1.9253    1.0238 O   0  0  0  0  0  0  0  0  0  0  0  0
    0.6178    1.2680   -0.7359 C   0  0  0  0  0  0  0  0  0  0  0  0
    1.1436   -0.0920   -0.2178 C   0  0  0  0  0  0  0  0  0  0  0  0
    1.5105   -0.0245    1.2758 C   0  0  0  0  0  0  0  0  0  0  0  0
    2.4530   -0.4221   -0.9734 C   0  0  0  0  0  0  0  0  0  0  0  0
    0.1244   -1.2196   -0.5081 C   0  0  0  0  0  0  0  0  0  0  0  0
  2  1  1  1
  2  3  1  0
  3  4  1  0
  4  5  1  1
  4  6  1  0
  6  7  1  0
  7  8  1  0
  7  9  1  0
  7 10  1  0
 10  2  1  0
M  END
