
     RDKit          3D

  9  8  0  0  0  0  0  0  0  0999 V2000
   -3.9171   -0.7572    0.5805 C   0  0  0  0  0  0  0  0  0  0  0  0
   -2.6754    0.0474    0.2272 C   0  0  0  0  0  0  0  0  0  0  0  0
   -1.4260   -0.5380    0.8866 C   0  0  0  0  0  0  0  0  0  0  0  0
   -0.1634    0.3005    0.6571 C   0  0  0  0  0  0  0  0  0  0  0  0
    0.2586    0.3662   -0.8156 C   0  0  0  0  0  0  0  0  0  0  0  0
    1.6218    1.0225   -1.0931 C   0  0  1  0  0  0  0  0  0  0  0  0
    1.8614    2.1215   -0.2212 O   0  0  0  0  0  0  0  0  0  0  0  0
    2.8230    0.0652   -1.1051 C   0  0  0  0  0  0  0  0  0  0  0  0
    3.0726   -0.7103    0.1788 C   0  0  0  0  0  0  0  0  0  0  0  0
  1  2  1  0
  2  3  1  0
  3  4  1  0
  4  5  1  0
  5  6  1  0
  6  7  1  1
  6  8  1  0
  8  9  1  0
M  END
