
     RDKit          3D

  8  8  0  0  0  0  0  0  0  0999 V2000
   -2.5551    0.6348    0.4421 O   0  0  0  0  0  0  0  0  0  0  0  0
   -1.3158    0.3076   -0.1764 C   0  0  2  0  0  0  0  0  0  0  0  0
   -0.9940   -1.1679    0.0582 C   0  0  0  0  0  0  0  0  0  0  0  0
    0.3827   -1.5362   -0.4858 C   0  0  0  0  0  0  0  0  0  0  0  0
    1.4687   -0.6243    0.0758 C   0  0  0  0  0  0  0  0  0  0  0  0
    1.1457    0.8516   -0.1524 C   0  0  2  0  0  0  0  0  0  0  0  0
    2.1467    1.6364    0.4869 O   0  0  0  0  0  0  0  0  0  0  0  0
   -0.2305    1.2122    0.3988 C   0  0  0  0  0  0  0  0  0  0  0  0
  2  1  1  1
  2  3  1  0
  3  4  1  0
  4  5  1  0
  5  6  1  0
  6  7  1  1
  6  8  1  0
  8  2  1  0
M  END
