
     RDKit          3D

  6  5  0  0  0  0  0  0  0  0999 V2000
    2.4846    0.4487   -0.4766 C   0  0  0  0  0  0  0  0  0  0  0  0
    1.0491   -0.0265   -0.6463 C   0  0  0  0  0  0  0  0  0  0  0  0
    0.2449    0.1603    0.6443 C   0  0  0  0  0  0  0  0  0  0  0  0
   -1.1939   -0.3641    0.5732 C   0  0  1  0  0  0  0  0  0  0  0  0
   -2.0427    0.3334   -0.4810 C   0  0  0  0  0  0  0  0  0  0  0  0
   -1.1704   -1.7640    0.3096 O   0  0  0  0  0  0  0  0  0  0  0  0
  1  2  1  0
  2  3  1  0
  3  4  1  0
  4  5  1  6
  4  6  1  0
M  END
