
     RDKit          3D

  7  6  0  0  0  0  0  0  0  0999 V2000
    2.1825    1.2408    0.1722 C   0  0  0  0  0  0  0  0  0  0  0  0
    1.7910   -0.1074    0.7559 C   0  0  0  0  0  0  0  0  0  0  0  0
    0.9656   -0.9710   -0.1993 C   0  0  0  0  0  0  0  0  0  0  0  0
   -0.3609   -0.3651   -0.6776 C   0  0  1  0  0  0  0  0  0  0  0  0
   -0.9586   -1.2882   -1.5913 O   0  0  0  0  0  0  0  0  0  0  0  0
   -1.3417   -0.0706    0.4632 C   0  0  0  0  0  0  0  0  0  0  0  0
   -2.6594    0.5053   -0.0406 C   0  0  0  0  0  0  0  0  0  0  0  0
  1  2  1  0
  2  3  1  0
  3  4  1  0
  4  5  1  6
  4  6  1  0
  6  7  1  0
M  END
