
     RDKit          3D

 11 11  0  0  0  0  0  0  0  0999 V2000
    2.0733    1.2332   -0.5306 C   0  0  0  0  0  0  0  0  0  0  0  0
    1.4772    0.4779    0.6538 C   0  0  2  0  0  0  0  0  0  0  0  0
    1.7251   -1.0202    0.5689 C   0  0  0  0  0  0  0  0  0  0  0  0
    0.7231   -1.6759   -0.3416 C   0  0  0  0  0  0  0  0  0  0  0  0
    1.0642   -2.3783   -1.2889 O   0  0  0  0  0  0  0  0  0  0  0  0
   -0.7245   -1.4647    0.0179 C   0  0  0  0  0  0  0  0  0  0  0  0
   -1.0732    0.0267    0.0768 C   0  0  0  0  0  0  0  0  0  0  0  0
    0.0023    0.8284    0.8340 C   0  0  0  0  0  0  0  0  0  0  0  0
   -0.3011    1.8055    1.5244 O   0  0  0  0  0  0  0  0  0  0  0  0
   -2.4186    0.1754    0.8136 C   0  0  0  0  0  0  0  0  0  0  0  0
   -1.2324    0.6066   -1.3365 C   0  0  0  0  0  0  0  0  0  0  0  0
  2  1  1  6
  2  3  1  0
  3  4  1  0
  4  5  2  0
  4  6  1  0
  6  7  1  0
  7  8  1  0
  8  9  2  0
  7 10  1  0
  7 11  1  0
  8  2  1  0
M  END
