
     RDKit          3D

  8  8  0  0  0  0  0  0  0  0999 V2000
    2.5088    0.0015    0.5313 C   0  0  0  0  0  0  0  0  0  0  0  0
    1.1039    0.0124   -0.0685 C   0  0  2  0  0  0  0  0  0  0  0  0
    0.3337    1.2671    0.3482 C   0  0  0  0  0  0  0  0  0  0  0  0
   -1.0367    1.3499   -0.3289 C   0  0  0  0  0  0  0  0  0  0  0  0
   -1.6075   -0.0128   -0.7318 C   0  0  0  0  0  0  0  0  0  0  0  0
   -1.1884   -1.1226    0.2266 C   0  0  2  0  0  0  0  0  0  0  0  0
   -1.6961   -0.8387    1.5308 O   0  0  0  0  0  0  0  0  0  0  0  0
    0.3360   -1.2679    0.3162 C   0  0  0  0  0  0  0  0  0  0  0  0
  2  1  1  1
  2  3  1  0
  3  4  1  0
  4  5  1  0
  5  6  1  0
  6  7  1  1
  6  8  1  0
  8  2  1  0
M  END
