
     RDKit          3D

 10  9  0  0  0  0  0  0  0  0999 V2000
   -0.0716   -0.0305   -0.6461 C   0  0  0  0  0  0  0  0  0  0  0  0
    1.2264    0.0358    0.1626 C   0  0  0  0  0  0  0  0  0  0  0  0
    2.3556    0.5996   -0.6566 C   0  0  0  0  0  0  0  0  0  0  0  0
    2.3151    0.9739   -1.8153 O   0  0  0  0  0  0  0  0  0  0  0  0
    3.5026    0.6618    0.0467 O   0  0  0  0  0  0  0  0  0  0  0  0
   -1.2070   -0.7228    0.1155 C   0  0  1  0  0  0  0  0  0  0  0  0
   -1.6310    0.1106    1.3298 C   0  0  0  0  0  0  0  0  0  0  0  0
   -2.3809    1.0753    1.3244 O   0  0  0  0  0  0  0  0  0  0  0  0
   -1.0470   -0.2947    2.4756 O   0  0  0  0  0  0  0  0  0  0  0  0
   -2.3765   -0.9072   -0.7703 N   0  0  0  0  0  0  0  0  0  0  0  0
  1  2  1  0
  2  3  1  0
  3  4  2  0
  3  5  1  0
  1  6  1  0
  6  7  1  0
  7  8  2  0
  7  9  1  0
  6 10  1  6
M  END
