
     RDKit          3D

 13 13  0  0  0  0  0  0  0  0999 V2000
   -3.6714    1.4832   -0.6685 C   0  0  0  0  0  0  0  0  0  0  0  0
   -2.4930    0.5256   -0.7568 C   0  0  0  0  0  0  0  0  0  0  0  0
   -2.4491   -0.4169    0.4473 C   0  0  0  0  0  0  0  0  0  0  0  0
   -1.3287   -1.4639    0.3592 C   0  0  2  0  0  0  0  0  0  0  0  0
   -1.4658   -2.3752    1.4515 O   0  0  0  0  0  0  0  0  0  0  0  0
    0.0599   -0.8668    0.4135 C   0  0  0  0  0  0  0  0  0  0  0  0
    0.5724   -0.3269    1.6007 C   0  0  0  0  0  0  0  0  0  0  0  0
    1.8480    0.2423    1.6313 C   0  0  0  0  0  0  0  0  0  0  0  0
    2.6374    0.2839    0.4811 C   0  0  0  0  0  0  0  0  0  0  0  0
    3.8625    0.8688    0.6481 O   0  0  0  0  0  0  0  0  0  0  0  0
    4.7145    0.9099   -0.4891 C   0  0  0  0  0  0  0  0  0  0  0  0
    2.1378   -0.2523   -0.7052 C   0  0  0  0  0  0  0  0  0  0  0  0
    0.8593   -0.8232   -0.7379 C   0  0  0  0  0  0  0  0  0  0  0  0
  1  2  1  0
  2  3  1  0
  3  4  1  0
  4  5  1  1
  4  6  1  0
  6  7  2  0
  7  8  1  0
  8  9  2  0
  9 10  1  0
 10 11  1  0
  9 12  1  0
 12 13  2  0
 13  6  1  0
M  END
