
     RDKit          3D

 11 10  0  0  0  0  0  0  0  0999 V2000
   -2.0479    2.2355    0.4525 C   0  0  0  0  0  0  0  0  0  0  0  0
   -2.6212    0.8313    0.5691 C   0  0  0  0  0  0  0  0  0  0  0  0
   -1.6652   -0.2586    0.0775 C   0  0  0  0  0  0  0  0  0  0  0  0
   -0.4196   -0.4079    0.9573 C   0  0  0  0  0  0  0  0  0  0  0  0
    0.4938   -1.5712    0.5266 C   0  0  2  0  0  0  0  0  0  0  0  0
    1.5555   -1.8217    1.6046 C   0  0  0  0  0  0  0  0  0  0  0  0
    1.1336   -1.4157   -0.8728 C   0  0  0  0  0  0  0  0  0  0  0  0
    2.0889   -0.2355   -1.0640 C   0  0  0  0  0  0  0  0  0  0  0  0
    1.3851    1.0409   -1.4338 C   0  0  0  0  0  0  0  0  0  0  0  0
    0.5620    1.1886   -2.3210 O   0  0  0  0  0  0  0  0  0  0  0  0
    1.7744    2.0866   -0.6806 O   0  0  0  0  0  0  0  0  0  0  0  0
  1  2  1  0
  2  3  1  0
  3  4  1  0
  4  5  1  0
  5  6  1  1
  5  7  1  0
  7  8  1  0
  8  9  1  0
  9 10  2  0
  9 11  1  0
M  END
