
     RDKit          3D

  7  7  0  0  0  0  0  0  0  0999 V2000
    1.9312   -0.8545   -0.8137 C   0  0  0  0  0  0  0  0  0  0  0  0
    0.5919   -0.1584   -0.6415 C   0  0  2  0  0  0  0  0  0  0  0  0
    0.6742    1.1017    0.2194 C   0  0  0  0  0  0  0  0  0  0  0  0
   -0.7199    1.2785    0.8315 C   0  0  0  0  0  0  0  0  0  0  0  0
   -1.4983    0.0057    0.4980 C   0  0  1  0  0  0  0  0  0  0  0  0
   -2.3625    0.2702   -0.6030 O   0  0  0  0  0  0  0  0  0  0  0  0
   -0.4396   -1.0130    0.0935 C   0  0  0  0  0  0  0  0  0  0  0  0
  2  1  1  1
  2  3  1  0
  3  4  1  0
  4  5  1  0
  5  6  1  6
  5  7  1  0
  7  2  1  0
M  END
