
     RDKit          3D

 11 11  0  0  0  0  0  0  0  0999 V2000
    3.5696   -0.4322    1.0411 C   0  0  0  0  0  0  0  0  0  0  0  0
    2.7845   -0.0842   -0.2181 C   0  0  1  0  0  0  0  0  0  0  0  0
    1.3123   -0.3435   -0.0412 C   0  0  0  0  0  0  0  0  0  0  0  0
    0.3147    0.5239   -0.2854 C   0  0  0  0  0  0  0  0  0  0  0  0
   -1.1094    0.2171   -0.0912 C   0  0  0  0  0  0  0  0  0  0  0  0
   -1.6594   -1.0277   -0.4242 C   0  0  0  0  0  0  0  0  0  0  0  0
   -3.0245   -1.2713   -0.2508 C   0  0  0  0  0  0  0  0  0  0  0  0
   -3.8550   -0.2697    0.2472 C   0  0  0  0  0  0  0  0  0  0  0  0
   -3.3230    0.9777    0.5663 C   0  0  0  0  0  0  0  0  0  0  0  0
   -1.9582    1.2214    0.3922 C   0  0  0  0  0  0  0  0  0  0  0  0
    3.0299    1.2779   -0.5461 O   0  0  0  0  0  0  0  0  0  0  0  0
  2  1  1  1
  2  3  1  0
  3  4  2  0
  4  5  1  0
  5  6  2  0
  6  7  1  0
  7  8  2  0
  8  9  1  0
  9 10  2  0
  2 11  1  0
 10  5  1  0
M  END
