
     RDKit          3D

  8  8  0  0  0  0  0  0  0  0999 V2000
    2.4074    0.3199   -0.1736 C   0  0  0  0  0  0  0  0  0  0  0  0
    0.9330    0.0119   -0.4146 C   0  0  1  0  0  0  0  0  0  0  0  0
    0.3935   -0.9283    0.6668 C   0  0  0  0  0  0  0  0  0  0  0  0
   -1.0711   -1.3078    0.4314 C   0  0  0  0  0  0  0  0  0  0  0  0
   -1.8708   -0.2285   -0.2994 C   0  0  0  0  0  0  0  0  0  0  0  0
   -1.3523    1.1707   -0.0046 C   0  0  0  0  0  0  0  0  0  0  0  0
    0.0995    1.2920   -0.4241 C   0  0  0  0  0  0  0  0  0  0  0  0
    0.5687    2.3814   -0.7535 O   0  0  0  0  0  0  0  0  0  0  0  0
  2  1  1  1
  2  3  1  0
  3  4  1  0
  4  5  1  0
  5  6  1  0
  6  7  1  0
  7  8  2  0
  7  2  1  0
M  END
