
     RDKit          3D

 12 12  0  0  0  0  0  0  0  0999 V2000
    4.0597   -0.2476   -0.0223 C   0  0  0  0  0  0  0  0  0  0  0  0
    2.9467   -0.1546   -1.0331 C   0  0  0  0  0  0  0  0  0  0  0  0
    3.1805   -0.1909   -2.2395 O   0  0  0  0  0  0  0  0  0  0  0  0
    1.5403   -0.0143   -0.5500 C   0  0  0  0  0  0  0  0  0  0  0  0
    0.5114    0.0403   -1.4980 C   0  0  0  0  0  0  0  0  0  0  0  0
   -0.8192    0.1708   -1.0922 C   0  0  0  0  0  0  0  0  0  0  0  0
   -1.1468    0.2515    0.2691 C   0  0  0  0  0  0  0  0  0  0  0  0
   -2.5865    0.3905    0.7170 C   0  0  2  0  0  0  0  0  0  0  0  0
   -3.4041   -0.8668    0.4539 C   0  0  0  0  0  0  0  0  0  0  0  0
   -3.2047    1.4888    0.0498 O   0  0  0  0  0  0  0  0  0  0  0  0
   -0.1128    0.1959    1.2142 C   0  0  0  0  0  0  0  0  0  0  0  0
    1.2209    0.0645    0.8099 C   0  0  0  0  0  0  0  0  0  0  0  0
  1  2  1  0
  2  3  2  0
  2  4  1  0
  4  5  2  0
  5  6  1  0
  6  7  2  0
  7  8  1  0
  8  9  1  6
  8 10  1  0
  7 11  1  0
 11 12  2  0
 12  4  1  0
M  END
