
     RDKit          3D

  8  8  0  0  0  0  0  0  0  0999 V2000
    1.9739   -1.5531    0.4613 O   0  0  0  0  0  0  0  0  0  0  0  0
    0.7914   -0.7737    0.6637 C   0  0  2  0  0  0  0  0  0  0  0  0
   -0.3608   -1.3731   -0.1467 C   0  0  0  0  0  0  0  0  0  0  0  0
   -1.6170   -0.5142   -0.0557 C   0  0  0  0  0  0  0  0  0  0  0  0
   -1.3401    0.9283   -0.4706 C   0  0  0  0  0  0  0  0  0  0  0  0
   -0.1956    1.5398    0.3385 C   0  0  0  0  0  0  0  0  0  0  0  0
    1.0721    0.6891    0.2832 C   0  0  2  0  0  0  0  0  0  0  0  0
    1.6146    0.7442   -1.0417 O   0  0  0  0  0  0  0  0  0  0  0  0
  2  1  1  6
  2  3  1  0
  3  4  1  0
  4  5  1  0
  5  6  1  0
  6  7  1  0
  7  8  1  6
  7  2  1  0
M  END
