
     RDKit          3D

 11 10  0  0  0  0  0  0  0  0999 V2000
    4.3674    1.4282    0.1301 C   0  0  0  0  0  0  0  0  0  0  0  0
    3.0110    1.1616   -0.5028 C   0  0  0  0  0  0  0  0  0  0  0  0
    2.1606    0.2341    0.3649 C   0  0  0  0  0  0  0  0  0  0  0  0
    0.7969   -0.0316   -0.2756 C   0  0  0  0  0  0  0  0  0  0  0  0
   -0.0544   -0.9625    0.5953 C   0  0  0  0  0  0  0  0  0  0  0  0
   -1.4133   -1.2708   -0.0487 C   0  0  1  0  0  0  0  0  0  0  0  0
   -2.2016   -2.2527    0.8135 C   0  0  0  0  0  0  0  0  0  0  0  0
   -2.1504   -0.0367   -0.1464 O   0  0  0  0  0  0  0  0  0  0  0  0
   -3.0932    0.0234   -1.1260 C   0  0  0  0  0  0  0  0  0  0  0  0
   -3.3648   -0.8715   -1.9132 O   0  0  0  0  0  0  0  0  0  0  0  0
   -3.7643    1.3624   -1.1039 C   0  0  0  0  0  0  0  0  0  0  0  0
  1  2  1  0
  2  3  1  0
  3  4  1  0
  4  5  1  0
  5  6  1  0
  6  7  1  1
  6  8  1  0
  8  9  1  0
  9 10  2  0
  9 11  1  0
M  END
