
     RDKit          3D

 13 13  0  0  0  0  0  0  0  0999 V2000
    4.4241    0.0396    0.1783 C   0  0  0  0  0  0  0  0  0  0  0  0
    3.4021   -0.6299    1.0825 C   0  0  0  0  0  0  0  0  0  0  0  0
    1.9966   -0.7446    0.4783 C   0  0  0  0  0  0  0  0  0  0  0  0
    1.2971    0.6036    0.2544 C   0  0  1  0  0  0  0  0  0  0  0  0
    1.8539    1.2601   -0.8832 O   0  0  0  0  0  0  0  0  0  0  0  0
   -0.1952    0.4414    0.0430 C   0  0  0  0  0  0  0  0  0  0  0  0
   -0.6981   -0.2137   -1.0914 C   0  0  0  0  0  0  0  0  0  0  0  0
   -2.0763   -0.3614   -1.2850 C   0  0  0  0  0  0  0  0  0  0  0  0
   -2.9733    0.1444   -0.3455 C   0  0  0  0  0  0  0  0  0  0  0  0
   -4.3372    0.0697   -0.4116 O   0  0  0  0  0  0  0  0  0  0  0  0
   -4.8898   -0.5973   -1.5393 C   0  0  0  0  0  0  0  0  0  0  0  0
   -2.4786    0.7976    0.7852 C   0  0  0  0  0  0  0  0  0  0  0  0
   -1.1030    0.9466    0.9814 C   0  0  0  0  0  0  0  0  0  0  0  0
  1  2  1  0
  2  3  1  0
  3  4  1  0
  4  5  1  6
  4  6  1  0
  6  7  2  0
  7  8  1  0
  8  9  2  0
  9 10  1  0
 10 11  1  0
  9 12  1  0
 12 13  2  0
 13  6  1  0
M  END
