
     RDKit          3D

 11 11  0  0  0  0  0  0  0  0999 V2000
    3.9163    0.1929    0.3369 C   0  0  0  0  0  0  0  0  0  0  0  0
    2.6495   -0.2486   -0.3294 C   0  0  0  0  0  0  0  0  0  0  0  0
    2.5939   -1.0819   -1.2225 O   0  0  0  0  0  0  0  0  0  0  0  0
    1.5909    0.4160    0.2028 O   0  0  0  0  0  0  0  0  0  0  0  0
    0.2927    0.0710   -0.3213 C   0  0  1  0  0  0  0  0  0  0  0  0
   -0.2424   -1.1805    0.3835 C   0  0  0  0  0  0  0  0  0  0  0  0
   -1.6540   -1.5200   -0.0883 C   0  0  0  0  0  0  0  0  0  0  0  0
   -2.6093   -0.3376    0.0597 C   0  0  0  0  0  0  0  0  0  0  0  0
   -2.0650    0.9267   -0.6097 C   0  0  0  0  0  0  0  0  0  0  0  0
   -0.6575    1.2676   -0.1165 C   0  0  1  0  0  0  0  0  0  0  0  0
   -0.7272    1.6204    1.2698 O   0  0  0  0  0  0  0  0  0  0  0  0
  1  2  1  0
  2  3  2  0
  2  4  1  0
  5  4  1  1
  5  6  1  0
  6  7  1  0
  7  8  1  0
  8  9  1  0
  9 10  1  0
 10 11  1  1
 10  5  1  0
M  END
