
     RDKit          3D

 10  9  0  0  0  0  0  0  0  0999 V2000
    0.2635    0.1753    0.8126 C   0  0  0  0  0  0  0  0  0  0  0  0
    0.9278   -0.2358   -0.5003 C   0  0  0  0  0  0  0  0  0  0  0  0
    2.3880   -0.5086   -0.2852 C   0  0  0  0  0  0  0  0  0  0  0  0
    2.9090   -1.6051   -0.1778 O   0  0  0  0  0  0  0  0  0  0  0  0
    3.1194    0.6177   -0.1980 O   0  0  0  0  0  0  0  0  0  0  0  0
   -1.2309    0.4975    0.6972 C   0  0  2  0  0  0  0  0  0  0  0  0
   -2.0289   -0.7598    0.3333 C   0  0  0  0  0  0  0  0  0  0  0  0
   -2.3459   -1.6571    1.0979 O   0  0  0  0  0  0  0  0  0  0  0  0
   -2.3129   -0.8578   -0.9861 O   0  0  0  0  0  0  0  0  0  0  0  0
   -1.5072    1.5991   -0.2481 N   0  0  0  0  0  0  0  0  0  0  0  0
  1  2  1  0
  2  3  1  0
  3  4  2  0
  3  5  1  0
  1  6  1  0
  6  7  1  0
  7  8  2  0
  7  9  1  0
  6 10  1  6
M  END
