
     RDKit          3D

 11 11  0  0  0  0  0  0  0  0999 V2000
   -3.0240   -1.7021   -0.6516 C   0  0  0  0  0  0  0  0  0  0  0  0
   -2.8202   -0.3403    0.0010 C   0  0  2  0  0  0  0  0  0  0  0  0
   -1.4154    0.1998    0.0152 C   0  0  0  0  0  0  0  0  0  0  0  0
   -0.2978   -0.4480   -0.3548 C   0  0  0  0  0  0  0  0  0  0  0  0
    1.0430    0.1520   -0.3145 C   0  0  0  0  0  0  0  0  0  0  0  0
    2.1220   -0.6279    0.1205 C   0  0  0  0  0  0  0  0  0  0  0  0
    3.4156   -0.1007    0.1465 C   0  0  0  0  0  0  0  0  0  0  0  0
    3.6440    1.2081   -0.2733 C   0  0  0  0  0  0  0  0  0  0  0  0
    2.5810    1.9884   -0.7233 C   0  0  0  0  0  0  0  0  0  0  0  0
    1.2870    1.4615   -0.7485 C   0  0  0  0  0  0  0  0  0  0  0  0
   -3.2822   -0.4321    1.3457 O   0  0  0  0  0  0  0  0  0  0  0  0
  2  1  1  1
  2  3  1  0
  3  4  2  0
  4  5  1  0
  5  6  2  0
  6  7  1  0
  7  8  2  0
  8  9  1  0
  9 10  2  0
  2 11  1  0
 10  5  1  0
M  END
