
     RDKit          3D

  7  7  0  0  0  0  0  0  0  0999 V2000
    2.0200   -0.4542    0.3305 C   0  0  0  0  0  0  0  0  0  0  0  0
    0.7157    0.1416   -0.1769 C   0  0  1  0  0  0  0  0  0  0  0  0
   -0.0561   -0.8076   -1.0894 C   0  0  0  0  0  0  0  0  0  0  0  0
   -1.4911   -0.2834   -1.0697 C   0  0  0  0  0  0  0  0  0  0  0  0
   -1.6072    0.6037    0.1697 C   0  0  0  0  0  0  0  0  0  0  0  0
   -0.2982    0.4222    0.9304 C   0  0  2  0  0  0  0  0  0  0  0  0
    0.0172    1.5934    1.6592 O   0  0  0  0  0  0  0  0  0  0  0  0
  2  1  1  1
  2  3  1  0
  3  4  1  0
  4  5  1  0
  5  6  1  0
  6  7  1  6
  6  2  1  0
M  END
