
     RDKit          3D

 10 10  0  0  0  0  0  0  0  0999 V2000
    1.8339    2.2370   -0.2452 C   0  0  0  0  0  0  0  0  0  0  0  0
    0.9351    1.0184   -0.4605 C   0  0  1  0  0  0  0  0  0  0  0  0
    1.7696   -0.2697   -0.4515 C   0  0  0  0  0  0  0  0  0  0  0  0
    0.9088   -1.5224   -0.6095 C   0  0  2  0  0  0  0  0  0  0  0  0
    0.3813   -1.5944   -1.9296 O   0  0  0  0  0  0  0  0  0  0  0  0
   -0.2338   -1.5671    0.4088 C   0  0  0  0  0  0  0  0  0  0  0  0
   -1.0809   -0.2725    0.4985 C   0  0  0  0  0  0  0  0  0  0  0  0
   -1.9659   -0.3537    1.7600 C   0  0  0  0  0  0  0  0  0  0  0  0
   -2.0227   -0.1285   -0.7129 C   0  0  0  0  0  0  0  0  0  0  0  0
   -0.1582    0.9621    0.6180 C   0  0  0  0  0  0  0  0  0  0  0  0
  2  1  1  1
  2  3  1  0
  3  4  1  0
  4  5  1  6
  4  6  1  0
  6  7  1  0
  7  8  1  0
  7  9  1  0
  7 10  1  0
 10  2  1  0
M  END
