
     RDKit          3D

  7  6  0  0  0  0  0  0  0  0999 V2000
   -0.5373   -0.9978    0.7652 C   0  0  0  0  0  0  0  0  0  0  0  0
   -0.2155    0.4014    0.2248 C   0  0  1  0  0  0  0  0  0  0  0  0
    1.2477    0.5147   -0.2141 C   0  0  0  0  0  0  0  0  0  0  0  0
    1.6521    1.0026   -1.2601 O   0  0  0  0  0  0  0  0  0  0  0  0
    2.1274    0.1221    0.7285 O   0  0  0  0  0  0  0  0  0  0  0  0
   -1.1207    0.6925   -0.9236 N   0  0  0  0  0  0  0  0  0  0  0  0
   -0.7356   -1.9167   -0.3140 O   0  0  0  0  0  0  0  0  0  0  0  0
  1  2  1  0
  2  3  1  0
  3  4  2  0
  3  5  1  0
  2  6  1  6
  1  7  1  0
M  END
