
     RDKit          3D

  7  7  0  0  0  0  0  0  0  0999 V2000
   -2.2448    0.2888   -0.1500 C   0  0  0  0  0  0  0  0  0  0  0  0
   -0.8680    0.0268    0.4374 C   0  0  1  0  0  0  0  0  0  0  0  0
   -0.1931   -1.2092   -0.1512 C   0  0  0  0  0  0  0  0  0  0  0  0
    1.2739   -0.9841    0.1870 C   0  0  0  0  0  0  0  0  0  0  0  0
    1.4770    0.5012   -0.0922 C   0  0  1  0  0  0  0  0  0  0  0  0
    1.8069    0.6914   -1.4650 O   0  0  0  0  0  0  0  0  0  0  0  0
    0.1266    1.1702    0.1848 C   0  0  0  0  0  0  0  0  0  0  0  0
  2  1  1  6
  2  3  1  0
  3  4  1  0
  4  5  1  0
  5  6  1  6
  5  7  1  0
  7  2  1  0
M  END
