
     RDKit          3D

 11 10  0  0  0  0  0  0  0  0999 V2000
   -4.0797   -0.1762    1.5832 C   0  0  0  0  0  0  0  0  0  0  0  0
   -2.7793   -0.6259    0.9386 C   0  0  0  0  0  0  0  0  0  0  0  0
   -2.5533    0.0618   -0.4014 C   0  0  0  0  0  0  0  0  0  0  0  0
   -1.2785   -0.4228   -1.0410 C   0  0  0  0  0  0  0  0  0  0  0  0
   -1.2341   -1.2510   -1.9397 O   0  0  0  0  0  0  0  0  0  0  0  0
   -0.2037    0.1792   -0.4622 O   0  0  0  0  0  0  0  0  0  0  0  0
    1.0935   -0.2100   -0.9569 C   0  0  2  0  0  0  0  0  0  0  0  0
    1.5287   -1.5007   -0.2738 C   0  0  0  0  0  0  0  0  0  0  0  0
    2.0598    0.9642   -0.7249 C   0  0  0  0  0  0  0  0  0  0  0  0
    2.2471    1.4006    0.7344 C   0  0  0  0  0  0  0  0  0  0  0  0
    3.4448    0.7475    1.4094 C   0  0  0  0  0  0  0  0  0  0  0  0
  1  2  1  0
  2  3  1  0
  3  4  1  0
  4  5  2  0
  4  6  1  0
  6  7  1  0
  7  8  1  1
  7  9  1  0
  9 10  1  0
 10 11  1  0
M  END
