
     RDKit          3D

  9  8  0  0  0  0  0  0  0  0999 V2000
    3.5067    0.3960    0.9490 C   0  0  0  0  0  0  0  0  0  0  0  0
    2.3491    0.5058   -0.0316 C   0  0  0  0  0  0  0  0  0  0  0  0
    1.7555   -0.8670   -0.3488 C   0  0  0  0  0  0  0  0  0  0  0  0
    0.6615   -0.8260   -1.4201 C   0  0  0  0  0  0  0  0  0  0  0  0
   -0.5584    0.0424   -1.0958 C   0  0  0  0  0  0  0  0  0  0  0  0
   -1.2966   -0.3955    0.1740 C   0  0  0  0  0  0  0  0  0  0  0  0
   -2.5904    0.3982    0.3879 C   0  0  1  0  0  0  0  0  0  0  0  0
   -3.3426   -0.0819    1.6217 C   0  0  0  0  0  0  0  0  0  0  0  0
   -2.2948    1.7837    0.5429 O   0  0  0  0  0  0  0  0  0  0  0  0
  1  2  1  0
  2  3  1  0
  3  4  1  0
  4  5  1  0
  5  6  1  0
  6  7  1  0
  7  8  1  1
  7  9  1  0
M  END
