
     RDKit          3D

 11 11  0  0  0  0  0  0  0  0999 V2000
   -0.8965   -0.1986    0.4285 C   0  0  1  0  0  0  0  0  0  0  0  0
    0.3943   -0.3156   -0.3949 C   0  0  0  0  0  0  0  0  0  0  0  0
    1.6435   -0.2264    0.4883 C   0  0  0  0  0  0  0  0  0  0  0  0
    2.9198   -0.3806   -0.3392 C   0  0  0  0  0  0  0  0  0  0  0  0
    4.1626   -0.2942    0.5323 C   0  0  0  0  0  0  0  0  0  0  0  0
   -0.9630    1.0980    1.0371 O   0  0  0  0  0  0  0  0  0  0  0  0
   -1.7636    1.9175    0.2950 C   0  0  0  0  0  0  0  0  0  0  0  0
   -1.9296    3.1048    0.5199 O   0  0  0  0  0  0  0  0  0  0  0  0
   -2.3727    1.1543   -0.8429 C   0  0  0  0  0  0  0  0  0  0  0  0
   -2.1558   -0.2890   -0.4257 C   0  0  2  0  0  0  0  0  0  0  0  0
   -3.3442   -0.8084    0.3887 C   0  0  0  0  0  0  0  0  0  0  0  0
  1  2  1  6
  2  3  1  0
  3  4  1  0
  4  5  1  0
  1  6  1  0
  6  7  1  0
  7  8  2  0
  7  9  1  0
  9 10  1  0
 10 11  1  1
 10  1  1  0
M  END
