
     RDKit          3D

  8  8  0  0  0  0  0  0  0  0999 V2000
    1.9854    0.4586    0.7124 C   0  0  0  0  0  0  0  0  0  0  0  0
    1.2085    0.0209   -0.5331 C   0  0  1  0  0  0  0  0  0  0  0  0
    0.6273   -1.3962   -0.3613 C   0  0  0  0  0  0  0  0  0  0  0  0
   -0.8946   -1.4340   -0.1986 C   0  0  0  0  0  0  0  0  0  0  0  0
   -1.4003   -0.2965    0.6815 C   0  0  0  0  0  0  0  0  0  0  0  0
   -1.0269    1.0776    0.1145 C   0  0  2  0  0  0  0  0  0  0  0  0
   -2.1673    1.6644   -0.5122 O   0  0  0  0  0  0  0  0  0  0  0  0
    0.1201    1.0339   -0.9000 C   0  0  0  0  0  0  0  0  0  0  0  0
  2  1  1  1
  2  3  1  0
  3  4  1  0
  4  5  1  0
  5  6  1  0
  6  7  1  6
  6  8  1  0
  8  2  1  0
M  END
