
     RDKit          3D

  6  5  0  0  0  0  0  0  0  0999 V2000
    1.9178   -0.1205    0.0127 C   0  0  0  0  0  0  0  0  0  0  0  0
    0.5071    0.3268    0.3778 C   0  0  1  0  0  0  0  0  0  0  0  0
   -0.5116   -0.0269   -0.7233 C   0  0  2  0  0  0  0  0  0  0  0  0
   -1.9042    0.5079   -0.4111 C   0  0  0  0  0  0  0  0  0  0  0  0
   -0.6056   -1.4492   -0.8460 O   0  0  0  0  0  0  0  0  0  0  0  0
    0.1224   -0.3389    1.5878 O   0  0  0  0  0  0  0  0  0  0  0  0
  2  1  1  6
  2  3  1  0
  3  4  1  1
  3  5  1  0
  2  6  1  0
M  END
