
     RDKit          3D

 11 11  0  0  0  0  0  0  0  0999 V2000
   -0.8661   -0.8447   -0.6622 C   0  0  1  0  0  0  0  0  0  0  0  0
    0.3799   -0.8203    0.2358 C   0  0  0  0  0  0  0  0  0  0  0  0
    1.3986    0.2483   -0.1680 C   0  0  0  0  0  0  0  0  0  0  0  0
    2.6326    0.2036    0.7347 C   0  0  0  0  0  0  0  0  0  0  0  0
    3.6532    1.2578    0.3362 C   0  0  0  0  0  0  0  0  0  0  0  0
   -1.4355   -2.1669   -0.5813 O   0  0  0  0  0  0  0  0  0  0  0  0
   -2.4909   -2.1687    0.2846 C   0  0  0  0  0  0  0  0  0  0  0  0
   -3.0926   -3.1700    0.6351 O   0  0  0  0  0  0  0  0  0  0  0  0
   -2.7725   -0.7749    0.7542 C   0  0  0  0  0  0  0  0  0  0  0  0
   -2.0379    0.0558   -0.2814 C   0  0  1  0  0  0  0  0  0  0  0  0
   -1.7240    1.4611    0.1944 C   0  0  0  0  0  0  0  0  0  0  0  0
  1  2  1  1
  2  3  1  0
  3  4  1  0
  4  5  1  0
  1  6  1  0
  6  7  1  0
  7  8  2  0
  7  9  1  0
  9 10  1  0
 10 11  1  1
 10  1  1  0
M  END
