
     RDKit          3D

 11 11  0  0  0  0  0  0  0  0999 V2000
   -0.4834    0.2232    0.4015 C   0  0  2  0  0  0  0  0  0  0  0  0
    0.3605   -1.0534    0.4148 C   0  0  0  0  0  0  0  0  0  0  0  0
    1.4274   -1.1290   -0.6817 C   0  0  0  0  0  0  0  0  0  0  0  0
    2.8198   -0.6562   -0.2539 C   0  0  0  0  0  0  0  0  0  0  0  0
    2.9003    0.8172    0.1049 C   0  0  0  0  0  0  0  0  0  0  0  0
   -1.4209    0.1756    1.4880 O   0  0  0  0  0  0  0  0  0  0  0  0
   -2.5101    0.9346    1.1668 C   0  0  0  0  0  0  0  0  0  0  0  0
   -3.4252    1.1869    1.9324 O   0  0  0  0  0  0  0  0  0  0  0  0
   -2.3908    1.4293   -0.2451 C   0  0  0  0  0  0  0  0  0  0  0  0
   -1.3456    0.4914   -0.8289 C   0  0  2  0  0  0  0  0  0  0  0  0
   -2.0139   -0.7485   -1.4297 C   0  0  0  0  0  0  0  0  0  0  0  0
  1  2  1  6
  2  3  1  0
  3  4  1  0
  4  5  1  0
  1  6  1  0
  6  7  1  0
  7  8  2  0
  7  9  1  0
  9 10  1  0
 10 11  1  1
 10  1  1  0
M  END
