
     RDKit          3D

 10 10  0  0  0  0  0  0  0  0999 V2000
    3.1694   -0.6872   -0.3022 C   0  0  0  0  0  0  0  0  0  0  0  0
    1.7508   -0.8449   -0.3737 O   0  0  0  0  0  0  0  0  0  0  0  0
    1.0847    0.2937   -0.7305 C   0  0  0  0  0  0  0  0  0  0  0  0
    1.6188    1.3665   -0.9731 O   0  0  0  0  0  0  0  0  0  0  0  0
   -0.4139    0.0133   -0.7890 C   0  0  1  0  0  0  0  0  0  0  0  0
   -0.9630   -0.3406    0.5754 C   0  0  0  0  0  0  0  0  0  0  0  0
   -2.4080    0.0732    0.4713 C   0  0  0  0  0  0  0  0  0  0  0  0
   -2.3397    1.2001   -0.5110 C   0  0  0  0  0  0  0  0  0  0  0  0
   -3.2202    2.0216   -0.7030 O   0  0  0  0  0  0  0  0  0  0  0  0
   -1.1669    1.1532   -1.2024 O   0  0  0  0  0  0  0  0  0  0  0  0
  1  2  1  0
  2  3  1  0
  3  4  2  0
  5  3  1  1
  5  6  1  0
  6  7  1  0
  7  8  1  0
  8  9  2  0
  8 10  1  0
 10  5  1  0
M  END
