
     RDKit          3D

 12 12  0  0  0  0  0  0  0  0999 V2000
   -2.4054    0.5500   -1.7437 C   0  0  0  0  0  0  0  0  0  0  0  0
   -1.4353    0.3720   -0.5533 C   0  0  0  0  0  0  0  0  0  0  0  0
   -1.2725    1.7398    0.1357 C   0  0  0  0  0  0  0  0  0  0  0  0
   -2.0898   -0.6108    0.4358 C   0  0  0  0  0  0  0  0  0  0  0  0
   -0.0668   -0.1489   -1.0964 C   0  0  1  0  0  0  0  0  0  0  0  0
    1.0551   -0.2937   -0.0820 C   0  0  0  0  0  0  0  0  0  0  0  0
    1.1639   -1.4292    0.7364 C   0  0  0  0  0  0  0  0  0  0  0  0
    2.2037   -1.5474    1.6602 C   0  0  0  0  0  0  0  0  0  0  0  0
    3.1508   -0.5331    1.7777 C   0  0  0  0  0  0  0  0  0  0  0  0
    3.0594    0.5993    0.9718 C   0  0  0  0  0  0  0  0  0  0  0  0
    2.0196    0.7184    0.0474 C   0  0  0  0  0  0  0  0  0  0  0  0
   -0.2499   -1.3955   -1.7779 O   0  0  0  0  0  0  0  0  0  0  0  0
  1  2  1  0
  2  3  1  0
  2  4  1  0
  2  5  1  0
  5  6  1  0
  6  7  2  0
  7  8  1  0
  8  9  2  0
  9 10  1  0
 10 11  2  0
  5 12  1  1
 11  6  1  0
M  END
