
     RDKit          3D

 11 10  0  0  0  0  0  0  0  0999 V2000
    4.9153    0.4839    0.0097 C   0  0  0  0  0  0  0  0  0  0  0  0
    3.5807    0.3151   -0.6977 C   0  0  0  0  0  0  0  0  0  0  0  0
    2.4931   -0.1570    0.2637 C   0  0  0  0  0  0  0  0  0  0  0  0
    1.1616   -0.3273   -0.4296 C   0  0  0  0  0  0  0  0  0  0  0  0
    0.9474   -0.1238   -1.6155 O   0  0  0  0  0  0  0  0  0  0  0  0
    0.2333   -0.7432    0.4789 O   0  0  0  0  0  0  0  0  0  0  0  0
   -1.1033   -0.9551   -0.0251 C   0  0  1  0  0  0  0  0  0  0  0  0
   -1.7443   -1.9998    0.8832 C   0  0  0  0  0  0  0  0  0  0  0  0
   -1.8562    0.3836   -0.0079 C   0  0  0  0  0  0  0  0  0  0  0  0
   -3.2658    0.2967   -0.5920 C   0  0  0  0  0  0  0  0  0  0  0  0
   -3.9266    1.6656   -0.6515 C   0  0  0  0  0  0  0  0  0  0  0  0
  1  2  1  0
  2  3  1  0
  3  4  1  0
  4  5  2  0
  4  6  1  0
  6  7  1  0
  7  8  1  1
  7  9  1  0
  9 10  1  0
 10 11  1  0
M  END
