
     RDKit          3D

 10 10  0  0  0  0  0  0  0  0999 V2000
   -1.7855   -1.3271   -1.0711 C   0  0  0  0  0  0  0  0  0  0  0  0
   -1.6244   -0.3157    0.0644 C   0  0  2  0  0  0  0  0  0  0  0  0
   -1.4895    1.1164   -0.4610 C   0  0  0  0  0  0  0  0  0  0  0  0
   -0.0912    1.4336   -0.9859 C   0  0  1  0  0  0  0  0  0  0  0  0
   -0.0269    2.8119   -1.3465 O   0  0  0  0  0  0  0  0  0  0  0  0
    0.9699    1.1696    0.0815 C   0  0  0  0  0  0  0  0  0  0  0  0
    0.9456   -0.2719    0.6294 C   0  0  0  0  0  0  0  0  0  0  0  0
    1.8498   -0.3401    1.8799 C   0  0  0  0  0  0  0  0  0  0  0  0
    1.5318   -1.2529   -0.4022 C   0  0  0  0  0  0  0  0  0  0  0  0
   -0.4929   -0.6684    1.0473 C   0  0  0  0  0  0  0  0  0  0  0  0
  2  1  1  6
  2  3  1  0
  3  4  1  0
  4  5  1  1
  4  6  1  0
  6  7  1  0
  7  8  1  0
  7  9  1  0
  7 10  1  0
 10  2  1  0
M  END
