
     RDKit          3D

  7  6  0  0  0  0  0  0  0  0999 V2000
   -1.0333   -0.6242   -0.2223 C   0  0  0  0  0  0  0  0  0  0  0  0
    0.0084    0.5028   -0.1358 C   0  0  2  0  0  0  0  0  0  0  0  0
    1.3944   -0.0263    0.2438 C   0  0  0  0  0  0  0  0  0  0  0  0
    2.2008    0.5158    0.9877 O   0  0  0  0  0  0  0  0  0  0  0  0
    1.7595   -1.1342   -0.4355 O   0  0  0  0  0  0  0  0  0  0  0  0
   -0.4138    1.5645    0.8103 N   0  0  0  0  0  0  0  0  0  0  0  0
   -1.2237   -1.2794    1.0302 O   0  0  0  0  0  0  0  0  0  0  0  0
  1  2  1  0
  2  3  1  0
  3  4  2  0
  3  5  1  0
  2  6  1  1
  1  7  1  0
M  END
