
     RDKit          3D

 10 10  0  0  0  0  0  0  0  0999 V2000
    3.3200    0.0931    0.0795 C   0  0  0  0  0  0  0  0  0  0  0  0
    1.9779    0.5445    0.2639 O   0  0  0  0  0  0  0  0  0  0  0  0
    1.0639   -0.4553    0.4032 C   0  0  0  0  0  0  0  0  0  0  0  0
    1.3314   -1.6510    0.4134 O   0  0  0  0  0  0  0  0  0  0  0  0
   -0.3400    0.1108    0.6038 C   0  0  2  0  0  0  0  0  0  0  0  0
   -1.4047   -0.8525    0.1240 C   0  0  0  0  0  0  0  0  0  0  0  0
   -2.5691    0.0591   -0.1656 C   0  0  0  0  0  0  0  0  0  0  0  0
   -1.8752    1.3234   -0.5642 C   0  0  0  0  0  0  0  0  0  0  0  0
   -2.3903    2.2564   -1.1565 O   0  0  0  0  0  0  0  0  0  0  0  0
   -0.5818    1.3076   -0.1346 O   0  0  0  0  0  0  0  0  0  0  0  0
  1  2  1  0
  2  3  1  0
  3  4  2  0
  5  3  1  6
  5  6  1  0
  6  7  1  0
  7  8  1  0
  8  9  2  0
  8 10  1  0
 10  5  1  0
M  END
