
     RDKit          3D

 11 10  0  0  0  0  0  0  0  0999 V2000
    2.9881    1.0544   -0.0482 C   0  0  0  0  0  0  0  0  0  0  0  0
    2.3611   -0.2317   -0.5120 C   0  0  0  0  0  0  0  0  0  0  0  0
    1.2847   -0.8105    0.0551 C   0  0  0  0  0  0  0  0  0  0  0  0
    0.5232   -0.3261    1.2558 C   0  0  0  0  0  0  0  0  0  0  0  0
   -0.5384    0.7444    0.9744 C   0  0  0  0  0  0  0  0  0  0  0  0
   -1.7885    0.3475    0.1593 C   0  0  1  0  0  0  0  0  0  0  0  0
   -1.4924    0.1145   -1.3263 C   0  0  0  0  0  0  0  0  0  0  0  0
   -2.4972   -0.8558    0.7471 C   0  0  0  0  0  0  0  0  0  0  0  0
   -3.6233   -0.8505    1.4759 C   0  0  0  0  0  0  0  0  0  0  0  0
   -2.6660    1.4836    0.2175 O   0  0  0  0  0  0  0  0  0  0  0  0
    3.0330   -0.8560   -1.7064 C   0  0  0  0  0  0  0  0  0  0  0  0
  1  2  1  0
  2  3  2  3
  3  4  1  0
  4  5  1  0
  5  6  1  0
  6  7  1  6
  6  8  1  0
  8  9  2  0
  6 10  1  0
  2 11  1  0
M  END
