
     RDKit          3D

  8  7  0  0  0  0  0  0  0  0999 V2000
    2.0719    0.2865   -0.5841 C   0  0  0  0  0  0  0  0  0  0  0  0
    1.0817   -0.1953    0.4729 C   0  0  0  0  0  0  0  0  0  0  0  0
   -0.3861   -0.2534   -0.0005 C   0  0  1  0  0  0  0  0  0  0  0  0
   -1.2843   -0.7782    1.1286 C   0  0  0  0  0  0  0  0  0  0  0  0
   -0.9331    1.1327   -0.4106 C   0  0  0  0  0  0  0  0  0  0  0  0
   -1.7190    1.3575   -1.3210 O   0  0  0  0  0  0  0  0  0  0  0  0
   -0.5388    2.1408    0.3933 O   0  0  0  0  0  0  0  0  0  0  0  0
   -0.4883   -1.1787   -1.1548 N   0  0  0  0  0  0  0  0  0  0  0  0
  1  2  1  0
  2  3  1  0
  3  4  1  1
  3  5  1  0
  5  6  2  0
  5  7  1  0
  3  8  1  0
M  END
