
     RDKit          3D

 12 12  0  0  0  0  0  0  0  0999 V2000
   -3.8057   -0.9860    0.6257 C   0  0  0  0  0  0  0  0  0  0  0  0
   -3.1415    0.1473   -0.1116 C   0  0  0  0  0  0  0  0  0  0  0  0
   -3.8030    1.0620   -0.5988 O   0  0  0  0  0  0  0  0  0  0  0  0
   -1.6544    0.1488   -0.2484 C   0  0  0  0  0  0  0  0  0  0  0  0
   -1.0463    1.2212   -0.9133 C   0  0  0  0  0  0  0  0  0  0  0  0
    0.3424    1.2677   -1.0660 C   0  0  0  0  0  0  0  0  0  0  0  0
    1.1484    0.2409   -0.5581 C   0  0  0  0  0  0  0  0  0  0  0  0
    2.6521    0.2976   -0.7219 C   0  0  1  0  0  0  0  0  0  0  0  0
    3.3731    0.5450    0.5960 C   0  0  0  0  0  0  0  0  0  0  0  0
    3.1246   -0.9260   -1.2819 O   0  0  0  0  0  0  0  0  0  0  0  0
    0.5339   -0.8311    0.1078 C   0  0  0  0  0  0  0  0  0  0  0  0
   -0.8557   -0.8795    0.2622 C   0  0  0  0  0  0  0  0  0  0  0  0
  1  2  1  0
  2  3  2  0
  2  4  1  0
  4  5  2  0
  5  6  1  0
  6  7  2  0
  7  8  1  0
  8  9  1  1
  8 10  1  0
  7 11  1  0
 11 12  2  0
 12  4  1  0
M  END
