
     RDKit          3D

  7  7  0  0  0  0  0  0  0  0999 V2000
    2.2821   -0.1653    0.3613 C   0  0  0  0  0  0  0  0  0  0  0  0
    0.7771   -0.1383    0.5665 C   0  0  1  0  0  0  0  0  0  0  0  0
    0.1585    1.2335    0.3051 C   0  0  0  0  0  0  0  0  0  0  0  0
   -1.3056    0.9607   -0.0545 C   0  0  0  0  0  0  0  0  0  0  0  0
   -1.4147   -0.5475   -0.2893 C   0  0  2  0  0  0  0  0  0  0  0  0
   -2.0269   -1.1674    0.8377 O   0  0  0  0  0  0  0  0  0  0  0  0
    0.0215   -1.0432   -0.4055 C   0  0  0  0  0  0  0  0  0  0  0  0
  2  1  1  6
  2  3  1  0
  3  4  1  0
  4  5  1  0
  5  6  1  1
  5  7  1  0
  7  2  1  0
M  END
